/*---------------------------------------------------------------------------*\
  =========                 |
  \\      /  F ield         | OpenFOAM: The Open Source CFD Toolbox
   \\    /   O peration     | Website:  https://openfoam.org
    \\  /    A nd           | Version:  8
     \\/     M anipulation  |
\*---------------------------------------------------------------------------*/
Build  : 8-ef60d22ea792
Exec   : icoFoam
Date   : Jul 29 2021
Time   : 08:10:10
Host   : "nla-gpu2.ianm.kit.edu"
PID    : 1975317
I/O    : uncollated
Case   : /home/greole/code/OBR/lidDrivenCavity3D/Variation_mesh/35/Variation_matrix_solver/CG_DIC_Serial/base
nProcs : 1
sigFpe : Enabling floating point exception trapping (FOAM_SIGFPE).
fileModificationChecking : Monitoring run-time modified files using timeStampMaster (fileModificationSkew 10)
allowSystemOperations : Allowing user-supplied system call operations

// * * * * * * * * * * * * * * * * * * * * * * * * * * * * * * * * * * * * * //
Create time

Create mesh for time = 0

Reading transportProperties

Reading field p

Reading field U

Reading/calculating face flux field phi


Starting time loop

Time = 0.001

Courant Number mean: 0 max: 0
DILUPBiCGStab:  Solving for Ux, Initial residual = 1, Final residual = 2.20563e-06, No Iterations 5
DILUPBiCGStab:  Solving for Uy:  solution singularity
DILUPBiCGStab:  Solving for Uz:  solution singularity
linear solve U 15229
DICPCG:  Solving for p, Initial residual = 1, Final residual = 7.4006e-05, No Iterations 87
linear solve p 68342
time step continuity errors : sum local = 4.09654e-08, global = -1.9275e-21, cumulative = -1.9275e-21
DICPCG:  Solving for p, Initial residual = 0.574345, Final residual = 7.65472e-05, No Iterations 85
linear solve p 66496
time step continuity errors : sum local = 6.42858e-08, global = -6.11989e-21, cumulative = -8.04739e-21
ExecutionTime = 0.42 s  ClockTime = 0 s

Time = 0.002

Courant Number mean: 0.0182993 max: 0.192029
DILUPBiCGStab:  Solving for Ux, Initial residual = 0.186251, Final residual = 3.84086e-07, No Iterations 5
DILUPBiCGStab:  Solving for Uy, Initial residual = 0.280736, Final residual = 4.98029e-07, No Iterations 5
DILUPBiCGStab:  Solving for Uz, Initial residual = 0.945511, Final residual = 1.91123e-06, No Iterations 5
linear solve U 29093
DICPCG:  Solving for p, Initial residual = 0.41028, Final residual = 8.85021e-05, No Iterations 83
linear solve p 65322
time step continuity errors : sum local = 7.01331e-08, global = 1.61285e-20, cumulative = 8.08109e-21
DICPCG:  Solving for p, Initial residual = 0.311806, Final residual = 8.60616e-05, No Iterations 82
linear solve p 69099
time step continuity errors : sum local = 7.13877e-08, global = 5.98452e-22, cumulative = 8.67955e-21
ExecutionTime = 0.61 s  ClockTime = 0 s

Time = 0.003

Courant Number mean: 0.0280032 max: 0.255325
DILUPBiCGStab:  Solving for Ux, Initial residual = 0.0712979, Final residual = 1.27855e-07, No Iterations 5
DILUPBiCGStab:  Solving for Uy, Initial residual = 0.109878, Final residual = 1.16853e-07, No Iterations 5
DILUPBiCGStab:  Solving for Uz, Initial residual = 0.165497, Final residual = 3.47843e-07, No Iterations 5
linear solve U 29760
DICPCG:  Solving for p, Initial residual = 0.128681, Final residual = 7.02825e-05, No Iterations 79
linear solve p 66893
time step continuity errors : sum local = 4.81677e-08, global = 1.68081e-21, cumulative = 1.03604e-20
DICPCG:  Solving for p, Initial residual = 0.098579, Final residual = 9.23957e-05, No Iterations 77
linear solve p 64320
time step continuity errors : sum local = 6.37962e-08, global = 3.42091e-21, cumulative = 1.37813e-20
ExecutionTime = 0.78 s  ClockTime = 0 s

Time = 0.004

Courant Number mean: 0.0339238 max: 0.277399
DILUPBiCGStab:  Solving for Ux, Initial residual = 0.0415537, Final residual = 6.91758e-08, No Iterations 5
DILUPBiCGStab:  Solving for Uy, Initial residual = 0.0673208, Final residual = 4.47422e-08, No Iterations 5
DILUPBiCGStab:  Solving for Uz, Initial residual = 0.10428, Final residual = 8.34275e-08, No Iterations 5
linear solve U 30263
DICPCG:  Solving for p, Initial residual = 0.0649517, Final residual = 8.95129e-05, No Iterations 76
linear solve p 63367
time step continuity errors : sum local = 6.01017e-08, global = 1.80472e-20, cumulative = 3.18284e-20
DICPCG:  Solving for p, Initial residual = 0.0495967, Final residual = 8.95072e-05, No Iterations 75
linear solve p 58706
time step continuity errors : sum local = 6.09572e-08, global = 1.98802e-20, cumulative = 5.17086e-20
ExecutionTime = 0.95 s  ClockTime = 1 s

Time = 0.005

Courant Number mean: 0.0381162 max: 0.287996
DILUPBiCGStab:  Solving for Ux, Initial residual = 0.0286366, Final residual = 1.92367e-08, No Iterations 5
DILUPBiCGStab:  Solving for Uy, Initial residual = 0.0466653, Final residual = 2.62365e-08, No Iterations 5
DILUPBiCGStab:  Solving for Uz, Initial residual = 0.0755258, Final residual = 4.74119e-08, No Iterations 5
linear solve U 30210
DICPCG:  Solving for p, Initial residual = 0.0383648, Final residual = 7.3434e-05, No Iterations 75
linear solve p 59132
time step continuity errors : sum local = 4.98663e-08, global = -1.43119e-20, cumulative = 3.73967e-20
DICPCG:  Solving for p, Initial residual = 0.0301135, Final residual = 7.97893e-05, No Iterations 74
linear solve p 58168
time step continuity errors : sum local = 5.4514e-08, global = 9.53348e-21, cumulative = 4.69302e-20
ExecutionTime = 1.11 s  ClockTime = 1 s

Time = 0.006

Courant Number mean: 0.0413847 max: 0.29426
DILUPBiCGStab:  Solving for Ux, Initial residual = 0.0215658, Final residual = 7.68922e-09, No Iterations 5
DILUPBiCGStab:  Solving for Uy, Initial residual = 0.035505, Final residual = 1.56852e-08, No Iterations 5
DILUPBiCGStab:  Solving for Uz, Initial residual = 0.0598982, Final residual = 4.01738e-08, No Iterations 5
linear solve U 28155
DICPCG:  Solving for p, Initial residual = 0.0265592, Final residual = 9.86922e-05, No Iterations 35
linear solve p 28118
time step continuity errors : sum local = 8.6191e-08, global = -1.43131e-20, cumulative = 3.26171e-20
DICPCG:  Solving for p, Initial residual = 0.0211395, Final residual = 9.26341e-05, No Iterations 33
linear solve p 28611
time step continuity errors : sum local = 7.04014e-08, global = 1.88522e-20, cumulative = 5.14693e-20
ExecutionTime = 1.22 s  ClockTime = 1 s

Time = 0.007

Courant Number mean: 0.0440605 max: 0.2985
DILUPBiCGStab:  Solving for Ux, Initial residual = 0.0171002, Final residual = 4.23214e-09, No Iterations 5
DILUPBiCGStab:  Solving for Uy, Initial residual = 0.0283737, Final residual = 1.11417e-08, No Iterations 5
DILUPBiCGStab:  Solving for Uz, Initial residual = 0.049931, Final residual = 3.69476e-08, No Iterations 5
linear solve U 29801
DICPCG:  Solving for p, Initial residual = 0.021033, Final residual = 8.23408e-05, No Iterations 34
linear solve p 29018
time step continuity errors : sum local = 7.01674e-08, global = 1.85793e-20, cumulative = 7.00486e-20
DICPCG:  Solving for p, Initial residual = 0.0169129, Final residual = 8.99948e-05, No Iterations 32
linear solve p 25875
time step continuity errors : sum local = 6.98142e-08, global = -1.19068e-20, cumulative = 5.81418e-20
ExecutionTime = 1.32 s  ClockTime = 1 s

Time = 0.008

Courant Number mean: 0.046283 max: 0.301602
DILUPBiCGStab:  Solving for Ux, Initial residual = 0.0140006, Final residual = 2.82867e-09, No Iterations 5
DILUPBiCGStab:  Solving for Uy, Initial residual = 0.0234128, Final residual = 7.87019e-09, No Iterations 5
DILUPBiCGStab:  Solving for Uz, Initial residual = 0.042313, Final residual = 3.16669e-08, No Iterations 5
linear solve U 30288
DICPCG:  Solving for p, Initial residual = 0.0168642, Final residual = 8.82967e-05, No Iterations 33
linear solve p 29744
time step continuity errors : sum local = 7.66239e-08, global = -1.6267e-20, cumulative = 4.18749e-20
DICPCG:  Solving for p, Initial residual = 0.0136409, Final residual = 7.679e-05, No Iterations 32
linear solve p 27839
time step continuity errors : sum local = 6.29721e-08, global = 1.59394e-20, cumulative = 5.78143e-20
ExecutionTime = 1.43 s  ClockTime = 1 s

Time = 0.009

Courant Number mean: 0.0481617 max: 0.303992
DILUPBiCGStab:  Solving for Ux, Initial residual = 0.0117466, Final residual = 2.08726e-09, No Iterations 5
DILUPBiCGStab:  Solving for Uy, Initial residual = 0.0197712, Final residual = 5.89272e-09, No Iterations 5
DILUPBiCGStab:  Solving for Uz, Initial residual = 0.0365, Final residual = 2.46201e-08, No Iterations 5
linear solve U 30023
DICPCG:  Solving for p, Initial residual = 0.014105, Final residual = 9.02032e-05, No Iterations 32
linear solve p 28808
time step continuity errors : sum local = 7.7817e-08, global = -1.91565e-20, cumulative = 3.86578e-20
DICPCG:  Solving for p, Initial residual = 0.0114638, Final residual = 9.63061e-05, No Iterations 31
linear solve p 25182
time step continuity errors : sum local = 7.79502e-08, global = 6.16611e-22, cumulative = 3.92744e-20
ExecutionTime = 1.53 s  ClockTime = 1 s

Time = 0.01

Courant Number mean: 0.0498032 max: 0.305898
DILUPBiCGStab:  Solving for Ux, Initial residual = 0.0100148, Final residual = 1.62733e-09, No Iterations 5
DILUPBiCGStab:  Solving for Uy, Initial residual = 0.0169804, Final residual = 4.53912e-09, No Iterations 5
DILUPBiCGStab:  Solving for Uz, Initial residual = 0.03184, Final residual = 1.85247e-08, No Iterations 5
linear solve U 30289
DICPCG:  Solving for p, Initial residual = 0.0119959, Final residual = 8.10608e-05, No Iterations 32
linear solve p 28805
time step continuity errors : sum local = 7.22519e-08, global = 1.36066e-20, cumulative = 5.28809e-20
DICPCG:  Solving for p, Initial residual = 0.00977594, Final residual = 8.54266e-05, No Iterations 31
linear solve p 26819
time step continuity errors : sum local = 7.16865e-08, global = 2.27767e-20, cumulative = 7.56577e-20
ExecutionTime = 1.64 s  ClockTime = 1 s

End

