/*---------------------------------------------------------------------------*\
  =========                 |
  \\      /  F ield         | OpenFOAM: The Open Source CFD Toolbox
   \\    /   O peration     | Website:  https://openfoam.org
    \\  /    A nd           | Version:  8
     \\/     M anipulation  |
\*---------------------------------------------------------------------------*/
Build  : 8-14d69e1ee166
Exec   : icoFoam
Date   : Jul 29 2021
Time   : 08:05:53
Host   : "guyot.icl.utk.edu"
PID    : 86533
I/O    : uncollated
Case   : /home/greole/code/OBR/lidDrivenCavity3D/Variation_mesh/40/Variation_matrix_solver/CG_NoPrecond_Serial/base
nProcs : 1
sigFpe : Enabling floating point exception trapping (FOAM_SIGFPE).
fileModificationChecking : Monitoring run-time modified files using timeStampMaster (fileModificationSkew 10)
allowSystemOperations : Allowing user-supplied system call operations

// * * * * * * * * * * * * * * * * * * * * * * * * * * * * * * * * * * * * * //
Create time

Create mesh for time = 0

Reading transportProperties

Reading field p

Reading field U

Reading/calculating face flux field phi


Starting time loop

Time = 0.001

Courant Number mean: 0 max: 0
DILUPBiCGStab:  Solving for Ux, Initial residual = 1, Final residual = 1.19415e-05, No Iterations 5
DILUPBiCGStab:  Solving for Uy:  solution singularity
DILUPBiCGStab:  Solving for Uz:  solution singularity
linear solve U 24359
nonePCG:  Solving for p, Initial residual = 1, Final residual = 8.67737e-05, No Iterations 310
linear solve p 194213
time step continuity errors : sum local = 4.90084e-08, global = 3.66674e-21, cumulative = 3.66674e-21
nonePCG:  Solving for p, Initial residual = 0.607442, Final residual = 9.47883e-05, No Iterations 305
linear solve p 197061
time step continuity errors : sum local = 7.91289e-08, global = -1.47791e-21, cumulative = 2.18882e-21
ExecutionTime = 0.76 s  ClockTime = 1 s

Time = 0.002

Courant Number mean: 0.0213818 max: 0.237104
DILUPBiCGStab:  Solving for Ux, Initial residual = 0.179109, Final residual = 2.2903e-06, No Iterations 5
DILUPBiCGStab:  Solving for Uy, Initial residual = 0.290839, Final residual = 3.2316e-06, No Iterations 5
DILUPBiCGStab:  Solving for Uz, Initial residual = 0.958333, Final residual = 1.25289e-05, No Iterations 5
linear solve U 44445
nonePCG:  Solving for p, Initial residual = 0.459164, Final residual = 8.41997e-05, No Iterations 303
linear solve p 191254
time step continuity errors : sum local = 6.70191e-08, global = 6.92457e-21, cumulative = 9.1134e-21
nonePCG:  Solving for p, Initial residual = 0.363703, Final residual = 8.59477e-05, No Iterations 301
linear solve p 189438
time step continuity errors : sum local = 7.1239e-08, global = 5.83131e-21, cumulative = 1.49447e-20
ExecutionTime = 1.21 s  ClockTime = 2 s

Time = 0.003

Courant Number mean: 0.0325209 max: 0.306671
DILUPBiCGStab:  Solving for Ux, Initial residual = 0.0649076, Final residual = 7.63598e-07, No Iterations 5
DILUPBiCGStab:  Solving for Uy, Initial residual = 0.105098, Final residual = 6.05247e-07, No Iterations 5
DILUPBiCGStab:  Solving for Uz, Initial residual = 0.144727, Final residual = 1.65154e-06, No Iterations 5
linear solve U 43158
nonePCG:  Solving for p, Initial residual = 0.164446, Final residual = 9.7737e-05, No Iterations 283
linear solve p 183299
time step continuity errors : sum local = 6.28314e-08, global = -1.98101e-21, cumulative = 1.29637e-20
nonePCG:  Solving for p, Initial residual = 0.129703, Final residual = 9.95189e-05, No Iterations 278
linear solve p 173915
time step continuity errors : sum local = 6.37877e-08, global = 4.98613e-21, cumulative = 1.79498e-20
ExecutionTime = 1.63 s  ClockTime = 2 s

Time = 0.004

Courant Number mean: 0.0391011 max: 0.328163
DILUPBiCGStab:  Solving for Ux, Initial residual = 0.0380612, Final residual = 2.89175e-07, No Iterations 5
DILUPBiCGStab:  Solving for Uy, Initial residual = 0.0656696, Final residual = 3.02517e-07, No Iterations 5
DILUPBiCGStab:  Solving for Uz, Initial residual = 0.105513, Final residual = 6.74351e-07, No Iterations 5
linear solve U 43624
nonePCG:  Solving for p, Initial residual = 0.0834326, Final residual = 9.07982e-05, No Iterations 277
linear solve p 178568
time step continuity errors : sum local = 5.63661e-08, global = -1.75436e-20, cumulative = 4.0621e-22
nonePCG:  Solving for p, Initial residual = 0.0649747, Final residual = 9.33644e-05, No Iterations 274
linear solve p 171942
time step continuity errors : sum local = 5.87212e-08, global = 5.00209e-21, cumulative = 5.4083e-21
ExecutionTime = 2.05 s  ClockTime = 3 s

Time = 0.005

Courant Number mean: 0.0438791 max: 0.338387
DILUPBiCGStab:  Solving for Ux, Initial residual = 0.0264329, Final residual = 7.82431e-08, No Iterations 5
DILUPBiCGStab:  Solving for Uy, Initial residual = 0.0455729, Final residual = 1.71087e-07, No Iterations 5
DILUPBiCGStab:  Solving for Uz, Initial residual = 0.074989, Final residual = 2.93069e-07, No Iterations 5
linear solve U 43292
nonePCG:  Solving for p, Initial residual = 0.0440319, Final residual = 9.16732e-05, No Iterations 272
linear solve p 185551
time step continuity errors : sum local = 5.6906e-08, global = 1.96131e-20, cumulative = 2.50214e-20
nonePCG:  Solving for p, Initial residual = 0.0356471, Final residual = 9.11575e-05, No Iterations 270
linear solve p 168769
time step continuity errors : sum local = 5.68147e-08, global = -3.59959e-21, cumulative = 2.14218e-20
ExecutionTime = 2.47 s  ClockTime = 3 s

Time = 0.006

Courant Number mean: 0.0475595 max: 0.344477
DILUPBiCGStab:  Solving for Ux, Initial residual = 0.0200118, Final residual = 3.55024e-08, No Iterations 5
DILUPBiCGStab:  Solving for Uy, Initial residual = 0.0348388, Final residual = 8.01848e-08, No Iterations 5
DILUPBiCGStab:  Solving for Uz, Initial residual = 0.0588936, Final residual = 1.91527e-07, No Iterations 5
linear solve U 43372
nonePCG:  Solving for p, Initial residual = 0.0293404, Final residual = 8.40683e-05, No Iterations 271
linear solve p 185019
time step continuity errors : sum local = 5.23353e-08, global = 1.87415e-22, cumulative = 2.16092e-20
nonePCG:  Solving for p, Initial residual = 0.024054, Final residual = 9.86214e-05, No Iterations 135
linear solve p 85076
time step continuity errors : sum local = 7.56075e-08, global = 3.97658e-20, cumulative = 6.13749e-20
ExecutionTime = 2.8 s  ClockTime = 3 s

Time = 0.007

Courant Number mean: 0.0505736 max: 0.348643
DILUPBiCGStab:  Solving for Ux, Initial residual = 0.0159057, Final residual = 2.12757e-08, No Iterations 5
DILUPBiCGStab:  Solving for Uy, Initial residual = 0.0279053, Final residual = 5.88811e-08, No Iterations 5
DILUPBiCGStab:  Solving for Uz, Initial residual = 0.0490619, Final residual = 1.37438e-07, No Iterations 5
linear solve U 43302
nonePCG:  Solving for p, Initial residual = 0.0230269, Final residual = 9.32852e-05, No Iterations 269
linear solve p 183770
time step continuity errors : sum local = 5.83858e-08, global = -1.04325e-20, cumulative = 5.09424e-20
nonePCG:  Solving for p, Initial residual = 0.0192887, Final residual = 9.77072e-05, No Iterations 121
linear solve p 76453
time step continuity errors : sum local = 6.41672e-08, global = -1.1198e-20, cumulative = 3.97444e-20
ExecutionTime = 3.13 s  ClockTime = 4 s

Time = 0.008

Courant Number mean: 0.053113 max: 0.351704
DILUPBiCGStab:  Solving for Ux, Initial residual = 0.0130778, Final residual = 1.51455e-08, No Iterations 5
DILUPBiCGStab:  Solving for Uy, Initial residual = 0.0230448, Final residual = 3.81375e-08, No Iterations 5
DILUPBiCGStab:  Solving for Uz, Initial residual = 0.0416161, Final residual = 1.08206e-07, No Iterations 5
linear solve U 43103
nonePCG:  Solving for p, Initial residual = 0.018059, Final residual = 9.53829e-05, No Iterations 266
linear solve p 181631
time step continuity errors : sum local = 5.99373e-08, global = -1.66995e-20, cumulative = 2.30449e-20
nonePCG:  Solving for p, Initial residual = 0.015258, Final residual = 9.62184e-05, No Iterations 123
linear solve p 77668
time step continuity errors : sum local = 7.49066e-08, global = 1.53241e-20, cumulative = 3.83689e-20
ExecutionTime = 3.46 s  ClockTime = 4 s

Time = 0.009

Courant Number mean: 0.0552703 max: 0.354072
DILUPBiCGStab:  Solving for Ux, Initial residual = 0.0109727, Final residual = 1.15006e-08, No Iterations 5
DILUPBiCGStab:  Solving for Uy, Initial residual = 0.0195151, Final residual = 2.78368e-08, No Iterations 5
DILUPBiCGStab:  Solving for Uz, Initial residual = 0.0360329, Final residual = 8.55036e-08, No Iterations 5
linear solve U 43269
nonePCG:  Solving for p, Initial residual = 0.0153143, Final residual = 9.63077e-05, No Iterations 266
linear solve p 181493
time step continuity errors : sum local = 6.07132e-08, global = -3.95958e-21, cumulative = 3.44093e-20
nonePCG:  Solving for p, Initial residual = 0.0129987, Final residual = 9.77346e-05, No Iterations 117
linear solve p 73825
time step continuity errors : sum local = 6.9706e-08, global = 2.11579e-20, cumulative = 5.55672e-20
ExecutionTime = 3.78 s  ClockTime = 4 s

Time = 0.01

Courant Number mean: 0.0571261 max: 0.355961
DILUPBiCGStab:  Solving for Ux, Initial residual = 0.00938736, Final residual = 9.26482e-09, No Iterations 5
DILUPBiCGStab:  Solving for Uy, Initial residual = 0.0167434, Final residual = 2.04683e-08, No Iterations 5
DILUPBiCGStab:  Solving for Uz, Initial residual = 0.0317419, Final residual = 6.74579e-08, No Iterations 5
linear solve U 43371
nonePCG:  Solving for p, Initial residual = 0.012935, Final residual = 9.13663e-05, No Iterations 265
linear solve p 180756
time step continuity errors : sum local = 5.77571e-08, global = 2.53007e-20, cumulative = 8.08679e-20
nonePCG:  Solving for p, Initial residual = 0.011008, Final residual = 9.60905e-05, No Iterations 263
linear solve p 164491
time step continuity errors : sum local = 6.0833e-08, global = -2.1881e-20, cumulative = 5.8987e-20
ExecutionTime = 4.19 s  ClockTime = 5 s

End

