/*---------------------------------------------------------------------------*\
  =========                 |
  \\      /  F ield         | OpenFOAM: The Open Source CFD Toolbox
   \\    /   O peration     | Website:  https://openfoam.org
    \\  /    A nd           | Version:  8
     \\/     M anipulation  |
\*---------------------------------------------------------------------------*/
Build  : 8-14d69e1ee166
Exec   : icoFoam
Date   : Jul 29 2021
Time   : 06:21:52
Host   : "guyot.icl.utk.edu"
PID    : 136964
I/O    : uncollated
Case   : /home/greole/code/OBR/lidDrivenCavity3D/Variation_mesh/80/Variation_matrix_solver/BiCGStab_NoPrecond_CUDA/base
nProcs : 1
sigFpe : Enabling floating point exception trapping (FOAM_SIGFPE).
fileModificationChecking : Monitoring run-time modified files using timeStampMaster (fileModificationSkew 10)
allowSystemOperations : Allowing user-supplied system call operations

// * * * * * * * * * * * * * * * * * * * * * * * * * * * * * * * * * * * * * //
Create time

Create mesh for time = 0

Reading transportProperties

Reading field p

Reading field U

Reading/calculating face flux field phi


Starting time loop

Time = 0.001

Courant Number mean: 0 max: 0
DILUPBiCGStab:  Solving for Ux, Initial residual = 1, Final residual = 0.00289442, No Iterations 5
DILUPBiCGStab:  Solving for Uy:  solution singularity
DILUPBiCGStab:  Solving for Uz:  solution singularity
linear solve U 201829
[OGL LOG] init_host_sparsity_pattern : 228 ms
[OGL LOG] matrix not stored update host matrix
[OGL LOG] update_host_mtx : 113 ms
[OGL LOG] matrix is not yet sorted, compute sorting idxs
[OGL LOG] compute_sort : 4935 ms
[OGL LOG] matrix is not yet sorted, sorting host matrix
[OGL LOG] sort_host_mtx_sparsity_pattern : 90 ms
[OGL LOG] sort_host_mtx : 54 ms
[OGL LOG] init_preconditioner : 0 ms
[OGL LOG] solve : 1094 ms
nonecudaGKOBiCGStab:  Solving for p, Initial residual = 1, Final residual = 2.64106e-05, No Iterations 508
linear solve p 8206660
time step continuity errors : sum local = 0.00361054, global = 2.83919e-18, cumulative = 2.83919e-18
[OGL LOG] init_host_sparsity_pattern : 207 ms
[OGL LOG] matrix not stored update host matrix
[OGL LOG] update_host_mtx : 104 ms
[OGL LOG] matrix is not yet sorted, sorting host matrix
[OGL LOG] sort_host_mtx_sparsity_pattern : 83 ms
[OGL LOG] sort_host_mtx : 55 ms
[OGL LOG] init_preconditioner : 0 ms
[OGL LOG] solve : 438 ms
nonecudaGKOBiCGStab:  Solving for p, Initial residual = 0.965452, Final residual = 9.03144e-05, No Iterations 202
linear solve p 923821
time step continuity errors : sum local = 1.27086e-06, global = 1.92307e-21, cumulative = 2.84111e-18
ExecutionTime = 11.57 s  ClockTime = 11 s

Time = 0.002

Courant Number mean: 0.0452162 max: 0.620858
DILUPBiCGStab:  Solving for Ux, Initial residual = 0.147719, Final residual = 0.00106367, No Iterations 5
DILUPBiCGStab:  Solving for Uy, Initial residual = 0.39236, Final residual = 0.00263387, No Iterations 5
DILUPBiCGStab:  Solving for Uz, Initial residual = 0.88291, Final residual = 0.0109512, No Iterations 5
linear solve U 418687
[OGL LOG] init_host_sparsity_pattern : 206 ms
[OGL LOG] matrix not stored update host matrix
[OGL LOG] update_host_mtx : 104 ms
[OGL LOG] matrix is not yet sorted, sorting host matrix
[OGL LOG] sort_host_mtx_sparsity_pattern : 84 ms
[OGL LOG] sort_host_mtx : 50 ms
[OGL LOG] init_preconditioner : 0 ms
[OGL LOG] solve : 905 ms
nonecudaGKOBiCGStab:  Solving for p, Initial residual = 0.986802, Final residual = 9.14895e-05, No Iterations 417
linear solve p 1383984
time step continuity errors : sum local = 0.0142501, global = 3.95123e-17, cumulative = 4.23534e-17
[OGL LOG] init_host_sparsity_pattern : 208 ms
[OGL LOG] matrix not stored update host matrix
[OGL LOG] update_host_mtx : 104 ms
[OGL LOG] matrix is not yet sorted, sorting host matrix
[OGL LOG] sort_host_mtx_sparsity_pattern : 82 ms
[OGL LOG] sort_host_mtx : 53 ms
[OGL LOG] init_preconditioner : 0 ms
[OGL LOG] solve : 448 ms
nonecudaGKOBiCGStab:  Solving for p, Initial residual = 0.765029, Final residual = 9.91406e-05, No Iterations 206
linear solve p 931154
time step continuity errors : sum local = 6.74153e-06, global = -2.33306e-21, cumulative = 4.2351e-17
ExecutionTime = 14.6 s  ClockTime = 14 s

Time = 0.003

Courant Number mean: 0.0796839 max: 0.930178
DILUPBiCGStab:  Solving for Ux, Initial residual = 0.0753037, Final residual = 0.000419643, No Iterations 5
DILUPBiCGStab:  Solving for Uy, Initial residual = 0.283216, Final residual = 0.00303126, No Iterations 5
DILUPBiCGStab:  Solving for Uz, Initial residual = 0.838714, Final residual = 0.00978565, No Iterations 5
linear solve U 413688
[OGL LOG] init_host_sparsity_pattern : 206 ms
[OGL LOG] matrix not stored update host matrix
[OGL LOG] update_host_mtx : 104 ms
[OGL LOG] matrix is not yet sorted, sorting host matrix
[OGL LOG] sort_host_mtx_sparsity_pattern : 83 ms
[OGL LOG] sort_host_mtx : 50 ms
[OGL LOG] init_preconditioner : 0 ms
[OGL LOG] solve : 927 ms
nonecudaGKOBiCGStab:  Solving for p, Initial residual = 0.992809, Final residual = 9.8178e-05, No Iterations 432
linear solve p 1406277
time step continuity errors : sum local = 0.0164994, global = -3.53584e-18, cumulative = 3.88152e-17
[OGL LOG] init_host_sparsity_pattern : 208 ms
[OGL LOG] matrix not stored update host matrix
[OGL LOG] update_host_mtx : 104 ms
[OGL LOG] matrix is not yet sorted, sorting host matrix
[OGL LOG] sort_host_mtx_sparsity_pattern : 83 ms
[OGL LOG] sort_host_mtx : 50 ms
[OGL LOG] init_preconditioner : 0 ms
[OGL LOG] solve : 451 ms
nonecudaGKOBiCGStab:  Solving for p, Initial residual = 0.831256, Final residual = 9.99727e-05, No Iterations 210
linear solve p 931619
time step continuity errors : sum local = 1.75828e-05, global = 1.47889e-20, cumulative = 3.883e-17
ExecutionTime = 17.63 s  ClockTime = 17 s

Time = 0.004

Courant Number mean: 0.130058 max: 2.24959
DILUPBiCGStab:  Solving for Ux, Initial residual = 0.169479, Final residual = 0.00110729, No Iterations 5
DILUPBiCGStab:  Solving for Uy, Initial residual = 0.524524, Final residual = 0.00458948, No Iterations 5
DILUPBiCGStab:  Solving for Uz, Initial residual = 0.827271, Final residual = 0.00788865, No Iterations 5
linear solve U 411987
[OGL LOG] init_host_sparsity_pattern : 206 ms
[OGL LOG] matrix not stored update host matrix
[OGL LOG] update_host_mtx : 104 ms
[OGL LOG] matrix is not yet sorted, sorting host matrix
[OGL LOG] sort_host_mtx_sparsity_pattern : 83 ms
[OGL LOG] sort_host_mtx : 51 ms
[OGL LOG] init_preconditioner : 0 ms
[OGL LOG] solve : 982 ms
nonecudaGKOBiCGStab:  Solving for p, Initial residual = 0.984339, Final residual = 9.76834e-05, No Iterations 453
linear solve p 1461005
time step continuity errors : sum local = 0.00343329, global = -2.98794e-18, cumulative = 3.5842e-17
[OGL LOG] init_host_sparsity_pattern : 208 ms
[OGL LOG] matrix not stored update host matrix
[OGL LOG] update_host_mtx : 104 ms
[OGL LOG] matrix is not yet sorted, sorting host matrix
[OGL LOG] sort_host_mtx_sparsity_pattern : 93 ms
[OGL LOG] sort_host_mtx : 54 ms
[OGL LOG] init_preconditioner : 0 ms
[OGL LOG] solve : 999 ms
nonecudaGKOBiCGStab:  Solving for p, Initial residual = 0.854471, Final residual = 4.8477e-05, No Iterations 463
linear solve p 1494217
time step continuity errors : sum local = 0.190111, global = 4.69971e-16, cumulative = 5.05813e-16
ExecutionTime = 21.28 s  ClockTime = 21 s

Time = 0.005

Courant Number mean: 0.246929 max: 11.3584
DILUPBiCGStab:  Solving for Ux, Initial residual = 0.259559, Final residual = 0.0019686, No Iterations 5
DILUPBiCGStab:  Solving for Uy, Initial residual = 0.573741, Final residual = 0.00995882, No Iterations 5
DILUPBiCGStab:  Solving for Uz, Initial residual = 0.701806, Final residual = 0.00922903, No Iterations 5
linear solve U 419171
[OGL LOG] init_host_sparsity_pattern : 207 ms
[OGL LOG] matrix not stored update host matrix
[OGL LOG] update_host_mtx : 104 ms
[OGL LOG] matrix is not yet sorted, sorting host matrix
[OGL LOG] sort_host_mtx_sparsity_pattern : 85 ms
[OGL LOG] sort_host_mtx : 50 ms
[OGL LOG] init_preconditioner : 0 ms
[OGL LOG] solve : 908 ms
nonecudaGKOBiCGStab:  Solving for p, Initial residual = 0.883916, Final residual = 8.56899e-05, No Iterations 421
linear solve p 1390174
time step continuity errors : sum local = 2.11182, global = 1.78813e-16, cumulative = 6.84625e-16
[OGL LOG] init_host_sparsity_pattern : 208 ms
[OGL LOG] matrix not stored update host matrix
[OGL LOG] update_host_mtx : 104 ms
[OGL LOG] matrix is not yet sorted, sorting host matrix
[OGL LOG] sort_host_mtx_sparsity_pattern : 82 ms
[OGL LOG] sort_host_mtx : 54 ms
[OGL LOG] init_preconditioner : 0 ms
[OGL LOG] solve : 327 ms
nonecudaGKOBiCGStab:  Solving for p, Initial residual = 0.793605, Final residual = 9.10687e-05, No Iterations 150
linear solve p 811937
time step continuity errors : sum local = 0.00162735, global = -4.28996e-18, cumulative = 6.80335e-16
ExecutionTime = 24.18 s  ClockTime = 24 s

Time = 0.006

Courant Number mean: 1.09121 max: 21.2869
DILUPBiCGStab:  Solving for Ux, Initial residual = 0.499103, Final residual = 0.0043374, No Iterations 5
DILUPBiCGStab:  Solving for Uy, Initial residual = 0.633017, Final residual = 0.0114125, No Iterations 5
DILUPBiCGStab:  Solving for Uz, Initial residual = 0.818196, Final residual = 0.0126253, No Iterations 5
linear solve U 413066
[OGL LOG] init_host_sparsity_pattern : 206 ms
[OGL LOG] matrix not stored update host matrix
[OGL LOG] update_host_mtx : 104 ms
[OGL LOG] matrix is not yet sorted, sorting host matrix
[OGL LOG] sort_host_mtx_sparsity_pattern : 85 ms
[OGL LOG] sort_host_mtx : 53 ms
[OGL LOG] init_preconditioner : 0 ms
[OGL LOG] solve : 882 ms
nonecudaGKOBiCGStab:  Solving for p, Initial residual = 0.988352, Final residual = 9.99959e-05, No Iterations 409
linear solve p 1365932
time step continuity errors : sum local = 1.80582, global = -2.12677e-15, cumulative = -1.44643e-15
[OGL LOG] init_host_sparsity_pattern : 208 ms
[OGL LOG] matrix not stored update host matrix
[OGL LOG] update_host_mtx : 104 ms
[OGL LOG] matrix is not yet sorted, sorting host matrix
[OGL LOG] sort_host_mtx_sparsity_pattern : 90 ms
[OGL LOG] sort_host_mtx : 53 ms
[OGL LOG] init_preconditioner : 0 ms
[OGL LOG] solve : 444 ms
nonecudaGKOBiCGStab:  Solving for p, Initial residual = 0.830861, Final residual = 9.96149e-05, No Iterations 204
linear solve p 935966
time step continuity errors : sum local = 0.00189278, global = 1.05276e-17, cumulative = -1.4359e-15
ExecutionTime = 27.19 s  ClockTime = 27 s

Time = 0.007

Courant Number mean: 10.3405 max: 175.078
DILUPBiCGStab:  Solving for Ux, Initial residual = 0.908922, Final residual = 0.0872204, No Iterations 5
DILUPBiCGStab:  Solving for Uy, Initial residual = 0.884461, Final residual = 0.0946128, No Iterations 5
DILUPBiCGStab:  Solving for Uz, Initial residual = 0.776833, Final residual = 0.190132, No Iterations 5
linear solve U 412446
[OGL LOG] init_host_sparsity_pattern : 206 ms
[OGL LOG] matrix not stored update host matrix
[OGL LOG] update_host_mtx : 104 ms
[OGL LOG] matrix is not yet sorted, sorting host matrix
[OGL LOG] sort_host_mtx_sparsity_pattern : 83 ms
[OGL LOG] sort_host_mtx : 52 ms
[OGL LOG] init_preconditioner : 0 ms
[OGL LOG] solve : 1094 ms
nonecudaGKOBiCGStab:  Solving for p, Initial residual = 0.925069, Final residual = 8.56007e-05, No Iterations 508
linear solve p 1575058
time step continuity errors : sum local = 9.9904, global = 2.45389e-14, cumulative = 2.3103e-14
[OGL LOG] init_host_sparsity_pattern : 208 ms
[OGL LOG] matrix not stored update host matrix
[OGL LOG] update_host_mtx : 104 ms
[OGL LOG] matrix is not yet sorted, sorting host matrix
[OGL LOG] sort_host_mtx_sparsity_pattern : 83 ms
[OGL LOG] sort_host_mtx : 52 ms
[OGL LOG] init_preconditioner : 0 ms
[OGL LOG] solve : 973 ms
nonecudaGKOBiCGStab:  Solving for p, Initial residual = 0.863334, Final residual = 9.98377e-05, No Iterations 447
linear solve p 1455934
time step continuity errors : sum local = 2.12376, global = -3.24566e-15, cumulative = 1.98573e-14
ExecutionTime = 30.91 s  ClockTime = 31 s

Time = 0.008

Courant Number mean: 29.4431 max: 425.855
DILUPBiCGStab:  Solving for Ux, Initial residual = 0.804973, Final residual = 6.28092, No Iterations 5
DILUPBiCGStab:  Solving for Uy, Initial residual = 0.797311, Final residual = 6.92308, No Iterations 5
DILUPBiCGStab:  Solving for Uz, Initial residual = 0.733306, Final residual = 3.6145, No Iterations 5
linear solve U 421369
[OGL LOG] init_host_sparsity_pattern : 206 ms
[OGL LOG] matrix not stored update host matrix
[OGL LOG] update_host_mtx : 104 ms
[OGL LOG] matrix is not yet sorted, sorting host matrix
[OGL LOG] sort_host_mtx_sparsity_pattern : 97 ms
[OGL LOG] sort_host_mtx : 52 ms
[OGL LOG] init_preconditioner : 0 ms
[OGL LOG] solve : 6477 ms
nonecudaGKOBiCGStab:  Solving for p, Initial residual = 0.930553, Final residual = 0.960928, No Iterations 3000
linear solve p 6972750
time step continuity errors : sum local = 236.39, global = 2.46377e-14, cumulative = 4.44951e-14
[OGL LOG] init_host_sparsity_pattern : 210 ms
[OGL LOG] matrix not stored update host matrix
[OGL LOG] update_host_mtx : 104 ms
[OGL LOG] matrix is not yet sorted, sorting host matrix
[OGL LOG] sort_host_mtx_sparsity_pattern : 88 ms
[OGL LOG] sort_host_mtx : 53 ms
[OGL LOG] init_preconditioner : 0 ms
[OGL LOG] solve : 6451 ms
nonecudaGKOBiCGStab:  Solving for p, Initial residual = 0.994376, Final residual = 0.917008, No Iterations 3000
linear solve p 6942900
time step continuity errors : sum local = 48579.3, global = -4.34711e-12, cumulative = -4.30262e-12
ExecutionTime = 45.54 s  ClockTime = 45 s

Time = 0.009

Courant Number mean: 7.11484e+06 max: 4.42605e+09
DILUPBiCGStab:  Solving for Ux, Initial residual = 1, Final residual = 673117, No Iterations 5
DILUPBiCGStab:  Solving for Uy, Initial residual = 1, Final residual = 107540, No Iterations 5
DILUPBiCGStab:  Solving for Uz, Initial residual = 1, Final residual = 134914, No Iterations 5
linear solve U 411871
[OGL LOG] init_host_sparsity_pattern : 207 ms
[OGL LOG] matrix not stored update host matrix
[OGL LOG] update_host_mtx : 104 ms
[OGL LOG] matrix is not yet sorted, sorting host matrix
[OGL LOG] sort_host_mtx_sparsity_pattern : 86 ms
[OGL LOG] sort_host_mtx : 52 ms
[OGL LOG] init_preconditioner : 0 ms
[OGL LOG] solve : 6453 ms
nonecudaGKOBiCGStab:  Solving for p, Initial residual = 1, Final residual = 166.272, No Iterations 3000
linear solve p 6937549
time step continuity errors : sum local = 4.07374e+19, global = 291.142, cumulative = 291.142
[OGL LOG] init_host_sparsity_pattern : 209 ms
[OGL LOG] matrix not stored update host matrix
[OGL LOG] update_host_mtx : 104 ms
[OGL LOG] matrix is not yet sorted, sorting host matrix
[OGL LOG] sort_host_mtx_sparsity_pattern : 82 ms
[OGL LOG] sort_host_mtx : 50 ms
[OGL LOG] init_preconditioner : 0 ms
[OGL LOG] solve : 6445 ms
nonecudaGKOBiCGStab:  Solving for p, Initial residual = 0.995091, Final residual = 4.89161, No Iterations 3000
linear solve p 6925918
time step continuity errors : sum local = 6.8984e+21, global = -727742, cumulative = -727451
ExecutionTime = 60.09 s  ClockTime = 60 s

Time = 0.01

Courant Number mean: 6.34822e+21 max: 1.50075e+26
DILUPBiCGStab:  Solving for Ux, Initial residual = 0.999967, Final residual = 3.42641, No Iterations 5
DILUPBiCGStab:  Solving for Uy, Initial residual = 0.999977, Final residual = 446.324, No Iterations 5
DILUPBiCGStab:  Solving for Uz, Initial residual = 0.999978, Final residual = 173.064, No Iterations 5
linear solve U 413036
[OGL LOG] init_host_sparsity_pattern : 206 ms
[OGL LOG] matrix not stored update host matrix
[OGL LOG] update_host_mtx : 104 ms
[OGL LOG] matrix is not yet sorted, sorting host matrix
[OGL LOG] sort_host_mtx_sparsity_pattern : 82 ms
[OGL LOG] sort_host_mtx : 50 ms
[OGL LOG] init_preconditioner : 0 ms
[OGL LOG] solve : 6480 ms
nonecudaGKOBiCGStab:  Solving for p, Initial residual = 1, Final residual = 11.3271, No Iterations 3000
linear solve p 6958753
time step continuity errors : sum local = 5.29581e+43, global = 3.6761e+27, cumulative = 3.6761e+27
[OGL LOG] init_host_sparsity_pattern : 208 ms
[OGL LOG] matrix not stored update host matrix
[OGL LOG] update_host_mtx : 104 ms
[OGL LOG] matrix is not yet sorted, sorting host matrix
[OGL LOG] sort_host_mtx_sparsity_pattern : 84 ms
[OGL LOG] sort_host_mtx : 53 ms
[OGL LOG] init_preconditioner : 0 ms
[OGL LOG] solve : 6444 ms
nonecudaGKOBiCGStab:  Solving for p, Initial residual = 0.873668, Final residual = 4.44577, No Iterations 3000
linear solve p 6929192
time step continuity errors : sum local = 6.07709e+44, global = 1.24135e+28, cumulative = 1.60896e+28
ExecutionTime = 74.68 s  ClockTime = 74 s

End

