/*---------------------------------------------------------------------------*\
  =========                 |
  \\      /  F ield         | OpenFOAM: The Open Source CFD Toolbox
   \\    /   O peration     | Website:  https://openfoam.org
    \\  /    A nd           | Version:  8
     \\/     M anipulation  |
\*---------------------------------------------------------------------------*/
Build  : 8-ef60d22ea792
Exec   : icoFoam
Date   : Jul 29 2021
Time   : 06:09:37
Host   : "nla-gpu2.ianm.kit.edu"
PID    : 1918757
I/O    : uncollated
Case   : /home/greole/code/OBR/lidDrivenCavity3D/Variation_mesh/90/Variation_matrix_solver/BiCGStab_BJ_HIP/base
nProcs : 1
sigFpe : Enabling floating point exception trapping (FOAM_SIGFPE).
fileModificationChecking : Monitoring run-time modified files using timeStampMaster (fileModificationSkew 10)
allowSystemOperations : Allowing user-supplied system call operations

// * * * * * * * * * * * * * * * * * * * * * * * * * * * * * * * * * * * * * //
Create time

Create mesh for time = 0

Reading transportProperties

Reading field p

Reading field U

Reading/calculating face flux field phi


Starting time loop

Time = 0.001

Courant Number mean: 0 max: 0
DILUPBiCGStab:  Solving for Ux, Initial residual = 1, Final residual = 0.00485432, No Iterations 5
DILUPBiCGStab:  Solving for Uy:  solution singularity
DILUPBiCGStab:  Solving for Uz:  solution singularity
linear solve U 302295
[OGL LOG] init_host_sparsity_pattern : 341 ms
[OGL LOG] matrix not stored update host matrix
[OGL LOG] update_host_mtx : 169 ms
[OGL LOG] matrix is not yet sorted, compute sorting idxs
[OGL LOG] compute_sort : 7340 ms
[OGL LOG] matrix is not yet sorted, sorting host matrix
[OGL LOG] sort_host_mtx_sparsity_pattern : 143 ms
[OGL LOG] sort_host_mtx : 91 ms
[OGL LOG] init_preconditioner : 536 ms
[OGL LOG] solve : 687 ms
BJhipGKOBiCGStab:  Solving for p, Initial residual = 1, Final residual = 5.59833e-05, No Iterations 554
linear solve p 9790132
time step continuity errors : sum local = 0.0932351, global = 5.12526e-18, cumulative = 5.12526e-18
[OGL LOG] init_host_sparsity_pattern : 311 ms
[OGL LOG] matrix not stored update host matrix
[OGL LOG] update_host_mtx : 150 ms
[OGL LOG] matrix is not yet sorted, sorting host matrix
[OGL LOG] sort_host_mtx_sparsity_pattern : 131 ms
[OGL LOG] sort_host_mtx : 82 ms
[OGL LOG] init_preconditioner : 0 ms
[OGL LOG] solve : 192 ms
BJhipGKOBiCGStab:  Solving for p, Initial residual = 0.986728, Final residual = 9.99133e-05, No Iterations 161
linear solve p 897570
time step continuity errors : sum local = 1.18957e-05, global = 1.89744e-20, cumulative = 5.14424e-18
ExecutionTime = 15.07 s  ClockTime = 15 s

Time = 0.002

Courant Number mean: 0.0529513 max: 0.727276
DILUPBiCGStab:  Solving for Ux, Initial residual = 0.179613, Final residual = 0.00232459, No Iterations 5
DILUPBiCGStab:  Solving for Uy, Initial residual = 0.75672, Final residual = 0.00426338, No Iterations 5
DILUPBiCGStab:  Solving for Uz, Initial residual = 0.877604, Final residual = 0.00549289, No Iterations 5
linear solve U 588532
[OGL LOG] init_host_sparsity_pattern : 309 ms
[OGL LOG] matrix not stored update host matrix
[OGL LOG] update_host_mtx : 150 ms
[OGL LOG] matrix is not yet sorted, sorting host matrix
[OGL LOG] sort_host_mtx_sparsity_pattern : 129 ms
[OGL LOG] sort_host_mtx : 82 ms
[OGL LOG] init_preconditioner : 0 ms
[OGL LOG] solve : 215 ms
BJhipGKOBiCGStab:  Solving for p, Initial residual = 0.953702, Final residual = 5.60884e-05, No Iterations 182
linear solve p 916860
time step continuity errors : sum local = 0.000657099, global = -3.02273e-21, cumulative = 5.14122e-18
[OGL LOG] init_host_sparsity_pattern : 307 ms
[OGL LOG] matrix not stored update host matrix
[OGL LOG] update_host_mtx : 150 ms
[OGL LOG] matrix is not yet sorted, sorting host matrix
[OGL LOG] sort_host_mtx_sparsity_pattern : 137 ms
[OGL LOG] sort_host_mtx : 83 ms
[OGL LOG] init_preconditioner : 0 ms
[OGL LOG] solve : 211 ms
BJhipGKOBiCGStab:  Solving for p, Initial residual = 0.821573, Final residual = 8.65128e-05, No Iterations 178
linear solve p 919665
time step continuity errors : sum local = 0.0002278, global = -1.63585e-21, cumulative = 5.13958e-18
ExecutionTime = 18.12 s  ClockTime = 18 s

Time = 0.003

Courant Number mean: 0.0968165 max: 1.06079
DILUPBiCGStab:  Solving for Ux, Initial residual = 0.110957, Final residual = 0.00114616, No Iterations 5
DILUPBiCGStab:  Solving for Uy, Initial residual = 0.725677, Final residual = 0.00392235, No Iterations 5
DILUPBiCGStab:  Solving for Uz, Initial residual = 0.899821, Final residual = 0.00518946, No Iterations 5
linear solve U 583025
[OGL LOG] init_host_sparsity_pattern : 315 ms
[OGL LOG] matrix not stored update host matrix
[OGL LOG] update_host_mtx : 152 ms
[OGL LOG] matrix is not yet sorted, sorting host matrix
[OGL LOG] sort_host_mtx_sparsity_pattern : 139 ms
[OGL LOG] sort_host_mtx : 83 ms
[OGL LOG] init_preconditioner : 0 ms
[OGL LOG] solve : 499 ms
BJhipGKOBiCGStab:  Solving for p, Initial residual = 0.974014, Final residual = 9.80631e-05, No Iterations 425
linear solve p 1220256
time step continuity errors : sum local = 0.00334366, global = 4.68559e-20, cumulative = 5.18644e-18
[OGL LOG] init_host_sparsity_pattern : 307 ms
[OGL LOG] matrix not stored update host matrix
[OGL LOG] update_host_mtx : 150 ms
[OGL LOG] matrix is not yet sorted, sorting host matrix
[OGL LOG] sort_host_mtx_sparsity_pattern : 140 ms
[OGL LOG] sort_host_mtx : 80 ms
[OGL LOG] init_preconditioner : 0 ms
[OGL LOG] solve : 412 ms
BJhipGKOBiCGStab:  Solving for p, Initial residual = 0.828674, Final residual = 9.93603e-05, No Iterations 348
linear solve p 1120422
time step continuity errors : sum local = 5.28584e-06, global = -2.23468e-20, cumulative = 5.16409e-18
ExecutionTime = 21.97 s  ClockTime = 21 s

Time = 0.004

Courant Number mean: 0.0957693 max: 0.92257
DILUPBiCGStab:  Solving for Ux, Initial residual = 0.0645112, Final residual = 0.000662951, No Iterations 5
DILUPBiCGStab:  Solving for Uy, Initial residual = 0.631411, Final residual = 0.00319256, No Iterations 5
DILUPBiCGStab:  Solving for Uz, Initial residual = 0.908908, Final residual = 0.00468642, No Iterations 5
linear solve U 585857
[OGL LOG] init_host_sparsity_pattern : 309 ms
[OGL LOG] matrix not stored update host matrix
[OGL LOG] update_host_mtx : 160 ms
[OGL LOG] matrix is not yet sorted, sorting host matrix
[OGL LOG] sort_host_mtx_sparsity_pattern : 131 ms
[OGL LOG] sort_host_mtx : 78 ms
[OGL LOG] init_preconditioner : 0 ms
[OGL LOG] solve : 458 ms
BJhipGKOBiCGStab:  Solving for p, Initial residual = 0.977718, Final residual = 9.9133e-05, No Iterations 388
linear solve p 1170018
time step continuity errors : sum local = 0.000478448, global = 4.65418e-20, cumulative = 5.21063e-18
[OGL LOG] init_host_sparsity_pattern : 307 ms
[OGL LOG] matrix not stored update host matrix
[OGL LOG] update_host_mtx : 150 ms
[OGL LOG] matrix is not yet sorted, sorting host matrix
[OGL LOG] sort_host_mtx_sparsity_pattern : 130 ms
[OGL LOG] sort_host_mtx : 82 ms
[OGL LOG] init_preconditioner : 0 ms
[OGL LOG] solve : 504 ms
BJhipGKOBiCGStab:  Solving for p, Initial residual = 0.821773, Final residual = 8.62764e-05, No Iterations 428
linear solve p 1204617
time step continuity errors : sum local = 2.58712e-06, global = -1.10723e-20, cumulative = 5.19956e-18
ExecutionTime = 25.89 s  ClockTime = 24 s

Time = 0.005

Courant Number mean: 0.104689 max: 0.890574
DILUPBiCGStab:  Solving for Ux, Initial residual = 0.0489813, Final residual = 0.000528314, No Iterations 5
DILUPBiCGStab:  Solving for Uy, Initial residual = 0.536098, Final residual = 0.00214298, No Iterations 5
DILUPBiCGStab:  Solving for Uz, Initial residual = 0.913771, Final residual = 0.00336717, No Iterations 5
linear solve U 582064
[OGL LOG] init_host_sparsity_pattern : 309 ms
[OGL LOG] matrix not stored update host matrix
[OGL LOG] update_host_mtx : 150 ms
[OGL LOG] matrix is not yet sorted, sorting host matrix
[OGL LOG] sort_host_mtx_sparsity_pattern : 146 ms
[OGL LOG] sort_host_mtx : 83 ms
[OGL LOG] init_preconditioner : 0 ms
[OGL LOG] solve : 485 ms
BJhipGKOBiCGStab:  Solving for p, Initial residual = 0.98059, Final residual = 9.46635e-05, No Iterations 414
linear solve p 1205281
time step continuity errors : sum local = 0.000214151, global = 2.68307e-20, cumulative = 5.22639e-18
[OGL LOG] init_host_sparsity_pattern : 307 ms
[OGL LOG] matrix not stored update host matrix
[OGL LOG] update_host_mtx : 150 ms
[OGL LOG] matrix is not yet sorted, sorting host matrix
[OGL LOG] sort_host_mtx_sparsity_pattern : 128 ms
[OGL LOG] sort_host_mtx : 80 ms
[OGL LOG] init_preconditioner : 0 ms
[OGL LOG] solve : 409 ms
BJhipGKOBiCGStab:  Solving for p, Initial residual = 0.819634, Final residual = 7.31436e-05, No Iterations 348
linear solve p 1107144
time step continuity errors : sum local = 0.0915327, global = 1.29128e-17, cumulative = 1.81392e-17
ExecutionTime = 29.7 s  ClockTime = 28 s

Time = 0.006

Courant Number mean: 0.154734 max: 1.37865
DILUPBiCGStab:  Solving for Ux, Initial residual = 0.0495865, Final residual = 0.000669308, No Iterations 5
DILUPBiCGStab:  Solving for Uy, Initial residual = 0.427171, Final residual = 0.00229172, No Iterations 5
DILUPBiCGStab:  Solving for Uz, Initial residual = 0.629867, Final residual = 0.00253944, No Iterations 5
linear solve U 583556
[OGL LOG] init_host_sparsity_pattern : 309 ms
[OGL LOG] matrix not stored update host matrix
[OGL LOG] update_host_mtx : 150 ms
[OGL LOG] matrix is not yet sorted, sorting host matrix
[OGL LOG] sort_host_mtx_sparsity_pattern : 125 ms
[OGL LOG] sort_host_mtx : 81 ms
[OGL LOG] init_preconditioner : 0 ms
[OGL LOG] solve : 466 ms
BJhipGKOBiCGStab:  Solving for p, Initial residual = 0.962703, Final residual = 9.60679e-05, No Iterations 392
linear solve p 1163000
time step continuity errors : sum local = 2.8146e-05, global = 2.21171e-19, cumulative = 1.83603e-17
[OGL LOG] init_host_sparsity_pattern : 306 ms
[OGL LOG] matrix not stored update host matrix
[OGL LOG] update_host_mtx : 150 ms
[OGL LOG] matrix is not yet sorted, sorting host matrix
[OGL LOG] sort_host_mtx_sparsity_pattern : 133 ms
[OGL LOG] sort_host_mtx : 84 ms
[OGL LOG] init_preconditioner : 0 ms
[OGL LOG] solve : 156 ms
BJhipGKOBiCGStab:  Solving for p, Initial residual = 0.749738, Final residual = 6.11862e-05, No Iterations 131
linear solve p 863535
time step continuity errors : sum local = 2.53826e-05, global = -1.18615e-19, cumulative = 1.82417e-17
ExecutionTime = 33.05 s  ClockTime = 30 s

Time = 0.007

Courant Number mean: 0.138439 max: 4.14509
DILUPBiCGStab:  Solving for Ux, Initial residual = 0.139804, Final residual = 0.00209342, No Iterations 5
DILUPBiCGStab:  Solving for Uy, Initial residual = 0.67425, Final residual = 0.00641184, No Iterations 5
DILUPBiCGStab:  Solving for Uz, Initial residual = 0.892205, Final residual = 0.00233561, No Iterations 5
linear solve U 583961
[OGL LOG] init_host_sparsity_pattern : 309 ms
[OGL LOG] matrix not stored update host matrix
[OGL LOG] update_host_mtx : 160 ms
[OGL LOG] matrix is not yet sorted, sorting host matrix
[OGL LOG] sort_host_mtx_sparsity_pattern : 137 ms
[OGL LOG] sort_host_mtx : 79 ms
[OGL LOG] init_preconditioner : 0 ms
[OGL LOG] solve : 494 ms
BJhipGKOBiCGStab:  Solving for p, Initial residual = 0.990461, Final residual = 4.61954e-05, No Iterations 420
linear solve p 1211528
time step continuity errors : sum local = 8.34942e-06, global = -3.44728e-22, cumulative = 1.82414e-17
[OGL LOG] init_host_sparsity_pattern : 307 ms
[OGL LOG] matrix not stored update host matrix
[OGL LOG] update_host_mtx : 151 ms
[OGL LOG] matrix is not yet sorted, sorting host matrix
[OGL LOG] sort_host_mtx_sparsity_pattern : 129 ms
[OGL LOG] sort_host_mtx : 80 ms
[OGL LOG] init_preconditioner : 0 ms
[OGL LOG] solve : 501 ms
BJhipGKOBiCGStab:  Solving for p, Initial residual = 0.766591, Final residual = 7.43331e-05, No Iterations 426
linear solve p 1198911
time step continuity errors : sum local = 0.00168302, global = 7.76507e-19, cumulative = 1.90179e-17
ExecutionTime = 37.03 s  ClockTime = 34 s

Time = 0.008

Courant Number mean: 0.13687 max: 1.67721
DILUPBiCGStab:  Solving for Ux, Initial residual = 0.121482, Final residual = 0.0016061, No Iterations 5
DILUPBiCGStab:  Solving for Uy, Initial residual = 0.62622, Final residual = 0.00528883, No Iterations 5
DILUPBiCGStab:  Solving for Uz, Initial residual = 0.947595, Final residual = 0.00228102, No Iterations 5
linear solve U 585430
[OGL LOG] init_host_sparsity_pattern : 309 ms
[OGL LOG] matrix not stored update host matrix
[OGL LOG] update_host_mtx : 150 ms
[OGL LOG] matrix is not yet sorted, sorting host matrix
[OGL LOG] sort_host_mtx_sparsity_pattern : 133 ms
[OGL LOG] sort_host_mtx : 78 ms
[OGL LOG] init_preconditioner : 0 ms
[OGL LOG] solve : 494 ms
BJhipGKOBiCGStab:  Solving for p, Initial residual = 0.993352, Final residual = 1.30382e-05, No Iterations 419
linear solve p 1196721
time step continuity errors : sum local = 1.77346e-06, global = 2.83981e-21, cumulative = 1.90207e-17
[OGL LOG] init_host_sparsity_pattern : 307 ms
[OGL LOG] matrix not stored update host matrix
[OGL LOG] update_host_mtx : 158 ms
[OGL LOG] matrix is not yet sorted, sorting host matrix
[OGL LOG] sort_host_mtx_sparsity_pattern : 139 ms
[OGL LOG] sort_host_mtx : 82 ms
[OGL LOG] init_preconditioner : 0 ms
[OGL LOG] solve : 472 ms
BJhipGKOBiCGStab:  Solving for p, Initial residual = 0.770508, Final residual = 7.34026e-05, No Iterations 400
linear solve p 1189631
time step continuity errors : sum local = 9.6313e-06, global = -4.49407e-21, cumulative = 1.90162e-17
ExecutionTime = 40.95 s  ClockTime = 37 s

Time = 0.009

Courant Number mean: 0.134813 max: 0.951529
DILUPBiCGStab:  Solving for Ux, Initial residual = 0.0745591, Final residual = 0.000839025, No Iterations 5
DILUPBiCGStab:  Solving for Uy, Initial residual = 0.549518, Final residual = 0.00363692, No Iterations 5
DILUPBiCGStab:  Solving for Uz, Initial residual = 0.95671, Final residual = 0.0013598, No Iterations 5
linear solve U 584118
[OGL LOG] init_host_sparsity_pattern : 309 ms
[OGL LOG] matrix not stored update host matrix
[OGL LOG] update_host_mtx : 151 ms
[OGL LOG] matrix is not yet sorted, sorting host matrix
[OGL LOG] sort_host_mtx_sparsity_pattern : 131 ms
[OGL LOG] sort_host_mtx : 82 ms
[OGL LOG] init_preconditioner : 0 ms
[OGL LOG] solve : 385 ms
BJhipGKOBiCGStab:  Solving for p, Initial residual = 0.994939, Final residual = 9.83536e-05, No Iterations 326
linear solve p 1089388
time step continuity errors : sum local = 0.026499, global = 1.44843e-18, cumulative = 2.04647e-17
[OGL LOG] init_host_sparsity_pattern : 308 ms
[OGL LOG] matrix not stored update host matrix
[OGL LOG] update_host_mtx : 151 ms
[OGL LOG] matrix is not yet sorted, sorting host matrix
[OGL LOG] sort_host_mtx_sparsity_pattern : 128 ms
[OGL LOG] sort_host_mtx : 81 ms
[OGL LOG] init_preconditioner : 0 ms
[OGL LOG] solve : 356 ms
BJhipGKOBiCGStab:  Solving for p, Initial residual = 0.798235, Final residual = 9.99611e-05, No Iterations 303
linear solve p 1057044
time step continuity errors : sum local = 1.30584e-05, global = -4.28659e-20, cumulative = 2.04218e-17
ExecutionTime = 44.51 s  ClockTime = 40 s

Time = 0.01

Courant Number mean: 0.135048 max: 0.926344
DILUPBiCGStab:  Solving for Ux, Initial residual = 0.0649832, Final residual = 0.000724233, No Iterations 5
DILUPBiCGStab:  Solving for Uy, Initial residual = 0.537345, Final residual = 0.0028686, No Iterations 5
DILUPBiCGStab:  Solving for Uz, Initial residual = 0.932873, Final residual = 0.00273738, No Iterations 5
linear solve U 584206
[OGL LOG] init_host_sparsity_pattern : 308 ms
[OGL LOG] matrix not stored update host matrix
[OGL LOG] update_host_mtx : 151 ms
[OGL LOG] matrix is not yet sorted, sorting host matrix
[OGL LOG] sort_host_mtx_sparsity_pattern : 136 ms
[OGL LOG] sort_host_mtx : 82 ms
[OGL LOG] init_preconditioner : 0 ms
[OGL LOG] solve : 462 ms
BJhipGKOBiCGStab:  Solving for p, Initial residual = 0.991081, Final residual = 2.61619e-05, No Iterations 392
linear solve p 1170034
time step continuity errors : sum local = 2.22733e-06, global = -1.31756e-20, cumulative = 2.04086e-17
[OGL LOG] init_host_sparsity_pattern : 307 ms
[OGL LOG] matrix not stored update host matrix
[OGL LOG] update_host_mtx : 160 ms
[OGL LOG] matrix is not yet sorted, sorting host matrix
[OGL LOG] sort_host_mtx_sparsity_pattern : 125 ms
[OGL LOG] sort_host_mtx : 82 ms
[OGL LOG] init_preconditioner : 0 ms
[OGL LOG] solve : 410 ms
BJhipGKOBiCGStab:  Solving for p, Initial residual = 0.77515, Final residual = 5.02937e-05, No Iterations 348
linear solve p 1116364
time step continuity errors : sum local = 0.519187, global = -1.04228e-16, cumulative = -8.38194e-17
ExecutionTime = 48.28 s  ClockTime = 43 s

End

