/*---------------------------------------------------------------------------*\
  =========                 |
  \\      /  F ield         | OpenFOAM: The Open Source CFD Toolbox
   \\    /   O peration     | Website:  https://openfoam.org
    \\  /    A nd           | Version:  8
     \\/     M anipulation  |
\*---------------------------------------------------------------------------*/
Build  : 8-ef60d22ea792
Exec   : icoFoam
Date   : Jul 29 2021
Time   : 07:43:45
Host   : "nla-gpu2.ianm.kit.edu"
PID    : 1961500
I/O    : uncollated
Case   : /home/greole/code/OBR/lidDrivenCavity3D/Variation_mesh/10/Variation_matrix_solver/BiCGStab_NoPrecond_HIP/base
nProcs : 1
sigFpe : Enabling floating point exception trapping (FOAM_SIGFPE).
fileModificationChecking : Monitoring run-time modified files using timeStampMaster (fileModificationSkew 10)
allowSystemOperations : Allowing user-supplied system call operations

// * * * * * * * * * * * * * * * * * * * * * * * * * * * * * * * * * * * * * //
Create time

Create mesh for time = 0

Reading transportProperties

Reading field p

Reading field U

Reading/calculating face flux field phi


Starting time loop

Time = 0.001

Courant Number mean: 0 max: 0
DILUPBiCGStab:  Solving for Ux, Initial residual = 1, Final residual = 8.04173e-19, No Iterations 5
DILUPBiCGStab:  Solving for Uy:  solution singularity
DILUPBiCGStab:  Solving for Uz:  solution singularity
linear solve U 458
[OGL LOG] init_host_sparsity_pattern : 0 ms
[OGL LOG] matrix not stored update host matrix
[OGL LOG] update_host_mtx : 0 ms
[OGL LOG] matrix is not yet sorted, compute sorting idxs
[OGL LOG] compute_sort : 6 ms
[OGL LOG] matrix is not yet sorted, sorting host matrix
[OGL LOG] sort_host_mtx_sparsity_pattern : 0 ms
[OGL LOG] sort_host_mtx : 0 ms
[OGL LOG] init_preconditioner : 0 ms
[OGL LOG] solve : 43 ms
nonehipGKOBiCGStab:  Solving for p, Initial residual = 1, Final residual = 8.2468e-05, No Iterations 56
linear solve p 462415
time step continuity errors : sum local = 5.41056e-08, global = -4.06311e-21, cumulative = -4.06311e-21
[OGL LOG] init_host_sparsity_pattern : 0 ms
[OGL LOG] matrix not stored update host matrix
[OGL LOG] update_host_mtx : 0 ms
[OGL LOG] matrix is not yet sorted, sorting host matrix
[OGL LOG] sort_host_mtx_sparsity_pattern : 0 ms
[OGL LOG] sort_host_mtx : 0 ms
[OGL LOG] init_preconditioner : 0 ms
[OGL LOG] solve : 14 ms
nonehipGKOBiCGStab:  Solving for p, Initial residual = 0.190453, Final residual = 5.96906e-05, No Iterations 55
linear solve p 16490
time step continuity errors : sum local = 7.22925e-08, global = 6.28575e-21, cumulative = 2.22263e-21
ExecutionTime = 0.57 s  ClockTime = 1 s

Time = 0.002

Courant Number mean: 0.00276876 max: 0.0123846
DILUPBiCGStab:  Solving for Ux, Initial residual = 0.271661, Final residual = 6.93042e-20, No Iterations 5
DILUPBiCGStab:  Solving for Uy, Initial residual = 0.305238, Final residual = 9.73377e-20, No Iterations 5
DILUPBiCGStab:  Solving for Uz, Initial residual = 0.484879, Final residual = 1.37797e-19, No Iterations 5
linear solve U 654
[OGL LOG] init_host_sparsity_pattern : 0 ms
[OGL LOG] matrix not stored update host matrix
[OGL LOG] update_host_mtx : 0 ms
[OGL LOG] matrix is not yet sorted, sorting host matrix
[OGL LOG] sort_host_mtx_sparsity_pattern : 0 ms
[OGL LOG] sort_host_mtx : 0 ms
[OGL LOG] init_preconditioner : 0 ms
[OGL LOG] solve : 13 ms
nonehipGKOBiCGStab:  Solving for p, Initial residual = 0.124792, Final residual = 6.58508e-05, No Iterations 50
linear solve p 15117
time step continuity errors : sum local = 8.19871e-08, global = -5.23936e-21, cumulative = -3.01673e-21
[OGL LOG] init_host_sparsity_pattern : 0 ms
[OGL LOG] matrix not stored update host matrix
[OGL LOG] update_host_mtx : 0 ms
[OGL LOG] matrix is not yet sorted, sorting host matrix
[OGL LOG] sort_host_mtx_sparsity_pattern : 0 ms
[OGL LOG] sort_host_mtx : 0 ms
[OGL LOG] init_preconditioner : 0 ms
[OGL LOG] solve : 5 ms
nonehipGKOBiCGStab:  Solving for p, Initial residual = 0.0212592, Final residual = 9.89599e-05, No Iterations 19
linear solve p 6753
time step continuity errors : sum local = 1.09796e-07, global = 9.59405e-21, cumulative = 6.57733e-21
ExecutionTime = 0.61 s  ClockTime = 1 s

Time = 0.003

Courant Number mean: 0.00491747 max: 0.0221391
DILUPBiCGStab:  Solving for Ux, Initial residual = 0.137869, Final residual = 3.69943e-20, No Iterations 5
DILUPBiCGStab:  Solving for Uy, Initial residual = 0.166027, Final residual = 4.8736e-20, No Iterations 5
DILUPBiCGStab:  Solving for Uz, Initial residual = 0.294074, Final residual = 1.08707e-19, No Iterations 5
linear solve U 650
[OGL LOG] init_host_sparsity_pattern : 0 ms
[OGL LOG] matrix not stored update host matrix
[OGL LOG] update_host_mtx : 0 ms
[OGL LOG] matrix is not yet sorted, sorting host matrix
[OGL LOG] sort_host_mtx_sparsity_pattern : 0 ms
[OGL LOG] sort_host_mtx : 0 ms
[OGL LOG] init_preconditioner : 0 ms
[OGL LOG] solve : 12 ms
nonehipGKOBiCGStab:  Solving for p, Initial residual = 0.063647, Final residual = 9.83721e-05, No Iterations 45
linear solve p 13841
time step continuity errors : sum local = 1.41063e-07, global = 8.27015e-21, cumulative = 1.48475e-20
[OGL LOG] init_host_sparsity_pattern : 0 ms
[OGL LOG] matrix not stored update host matrix
[OGL LOG] update_host_mtx : 0 ms
[OGL LOG] matrix is not yet sorted, sorting host matrix
[OGL LOG] sort_host_mtx_sparsity_pattern : 0 ms
[OGL LOG] sort_host_mtx : 0 ms
[OGL LOG] init_preconditioner : 0 ms
[OGL LOG] solve : 4 ms
nonehipGKOBiCGStab:  Solving for p, Initial residual = 0.0132937, Final residual = 9.78553e-05, No Iterations 17
linear solve p 6391
time step continuity errors : sum local = 1.02649e-07, global = -1.05763e-20, cumulative = 4.27115e-21
ExecutionTime = 0.65 s  ClockTime = 1 s

Time = 0.004

Courant Number mean: 0.00660406 max: 0.0298429
DILUPBiCGStab:  Solving for Ux, Initial residual = 0.0844082, Final residual = 2.35748e-20, No Iterations 5
DILUPBiCGStab:  Solving for Uy, Initial residual = 0.107787, Final residual = 2.8436e-20, No Iterations 5
DILUPBiCGStab:  Solving for Uz, Initial residual = 0.19488, Final residual = 7.26484e-20, No Iterations 5
linear solve U 644
[OGL LOG] init_host_sparsity_pattern : 0 ms
[OGL LOG] matrix not stored update host matrix
[OGL LOG] update_host_mtx : 0 ms
[OGL LOG] matrix is not yet sorted, sorting host matrix
[OGL LOG] sort_host_mtx_sparsity_pattern : 0 ms
[OGL LOG] sort_host_mtx : 0 ms
[OGL LOG] init_preconditioner : 0 ms
[OGL LOG] solve : 12 ms
nonehipGKOBiCGStab:  Solving for p, Initial residual = 0.0390779, Final residual = 9.54262e-05, No Iterations 47
linear solve p 14394
time step continuity errors : sum local = 1.43475e-07, global = 1.72384e-20, cumulative = 2.15096e-20
[OGL LOG] init_host_sparsity_pattern : 0 ms
[OGL LOG] matrix not stored update host matrix
[OGL LOG] update_host_mtx : 0 ms
[OGL LOG] matrix is not yet sorted, sorting host matrix
[OGL LOG] sort_host_mtx_sparsity_pattern : 0 ms
[OGL LOG] sort_host_mtx : 0 ms
[OGL LOG] init_preconditioner : 0 ms
[OGL LOG] solve : 4 ms
nonehipGKOBiCGStab:  Solving for p, Initial residual = 0.00958031, Final residual = 8.77033e-05, No Iterations 16
linear solve p 6108
time step continuity errors : sum local = 9.11903e-08, global = 2.72366e-20, cumulative = 4.87462e-20
ExecutionTime = 0.68 s  ClockTime = 1 s

Time = 0.005

Courant Number mean: 0.0079445 max: 0.0359757
DILUPBiCGStab:  Solving for Ux, Initial residual = 0.0590329, Final residual = 1.62583e-20, No Iterations 5
DILUPBiCGStab:  Solving for Uy, Initial residual = 0.0764525, Final residual = 1.783e-20, No Iterations 5
DILUPBiCGStab:  Solving for Uz, Initial residual = 0.150358, Final residual = 6.38868e-20, No Iterations 5
linear solve U 649
[OGL LOG] init_host_sparsity_pattern : 0 ms
[OGL LOG] matrix not stored update host matrix
[OGL LOG] update_host_mtx : 0 ms
[OGL LOG] matrix is not yet sorted, sorting host matrix
[OGL LOG] sort_host_mtx_sparsity_pattern : 0 ms
[OGL LOG] sort_host_mtx : 0 ms
[OGL LOG] init_preconditioner : 0 ms
[OGL LOG] solve : 12 ms
nonehipGKOBiCGStab:  Solving for p, Initial residual = 0.0281151, Final residual = 9.49784e-05, No Iterations 45
linear solve p 13710
time step continuity errors : sum local = 1.38942e-07, global = 2.9001e-20, cumulative = 7.77471e-20
[OGL LOG] init_host_sparsity_pattern : 0 ms
[OGL LOG] matrix not stored update host matrix
[OGL LOG] update_host_mtx : 0 ms
[OGL LOG] matrix is not yet sorted, sorting host matrix
[OGL LOG] sort_host_mtx_sparsity_pattern : 0 ms
[OGL LOG] sort_host_mtx : 0 ms
[OGL LOG] init_preconditioner : 0 ms
[OGL LOG] solve : 4 ms
nonehipGKOBiCGStab:  Solving for p, Initial residual = 0.00736372, Final residual = 9.72978e-05, No Iterations 16
linear solve p 5972
time step continuity errors : sum local = 1.10751e-07, global = 1.949e-20, cumulative = 9.72371e-20
ExecutionTime = 0.72 s  ClockTime = 1 s

Time = 0.006

Courant Number mean: 0.00902432 max: 0.0408975
DILUPBiCGStab:  Solving for Ux, Initial residual = 0.044419, Final residual = 1.17364e-20, No Iterations 5
DILUPBiCGStab:  Solving for Uy, Initial residual = 0.0572738, Final residual = 1.17257e-20, No Iterations 5
DILUPBiCGStab:  Solving for Uz, Initial residual = 0.12244, Final residual = 5.12629e-20, No Iterations 5
linear solve U 644
[OGL LOG] init_host_sparsity_pattern : 0 ms
[OGL LOG] matrix not stored update host matrix
[OGL LOG] update_host_mtx : 0 ms
[OGL LOG] matrix is not yet sorted, sorting host matrix
[OGL LOG] sort_host_mtx_sparsity_pattern : 0 ms
[OGL LOG] sort_host_mtx : 0 ms
[OGL LOG] init_preconditioner : 0 ms
[OGL LOG] solve : 12 ms
nonehipGKOBiCGStab:  Solving for p, Initial residual = 0.022819, Final residual = 9.67846e-05, No Iterations 47
linear solve p 14171
time step continuity errors : sum local = 1.48533e-07, global = 9.02619e-21, cumulative = 1.06263e-19
[OGL LOG] init_host_sparsity_pattern : 0 ms
[OGL LOG] matrix not stored update host matrix
[OGL LOG] update_host_mtx : 0 ms
[OGL LOG] matrix is not yet sorted, sorting host matrix
[OGL LOG] sort_host_mtx_sparsity_pattern : 0 ms
[OGL LOG] sort_host_mtx : 0 ms
[OGL LOG] init_preconditioner : 0 ms
[OGL LOG] solve : 4 ms
nonehipGKOBiCGStab:  Solving for p, Initial residual = 0.00582334, Final residual = 7.38445e-05, No Iterations 16
linear solve p 6262
time step continuity errors : sum local = 1.03348e-07, global = -3.94896e-21, cumulative = 1.02314e-19
ExecutionTime = 0.76 s  ClockTime = 1 s

Time = 0.007

Courant Number mean: 0.00990711 max: 0.04488
DILUPBiCGStab:  Solving for Ux, Initial residual = 0.0349039, Final residual = 8.75866e-21, No Iterations 5
DILUPBiCGStab:  Solving for Uy, Initial residual = 0.0445967, Final residual = 8.05695e-21, No Iterations 5
DILUPBiCGStab:  Solving for Uz, Initial residual = 0.102066, Final residual = 4.22778e-20, No Iterations 5
linear solve U 643
[OGL LOG] init_host_sparsity_pattern : 0 ms
[OGL LOG] matrix not stored update host matrix
[OGL LOG] update_host_mtx : 0 ms
[OGL LOG] matrix is not yet sorted, sorting host matrix
[OGL LOG] sort_host_mtx_sparsity_pattern : 0 ms
[OGL LOG] sort_host_mtx : 0 ms
[OGL LOG] init_preconditioner : 0 ms
[OGL LOG] solve : 12 ms
nonehipGKOBiCGStab:  Solving for p, Initial residual = 0.0194844, Final residual = 8.26291e-05, No Iterations 45
linear solve p 13553
time step continuity errors : sum local = 8.71053e-08, global = 3.91323e-20, cumulative = 1.41447e-19
[OGL LOG] init_host_sparsity_pattern : 0 ms
[OGL LOG] matrix not stored update host matrix
[OGL LOG] update_host_mtx : 0 ms
[OGL LOG] matrix is not yet sorted, sorting host matrix
[OGL LOG] sort_host_mtx_sparsity_pattern : 0 ms
[OGL LOG] sort_host_mtx : 0 ms
[OGL LOG] init_preconditioner : 0 ms
[OGL LOG] solve : 4 ms
nonehipGKOBiCGStab:  Solving for p, Initial residual = 0.00473898, Final residual = 9.15886e-05, No Iterations 15
linear solve p 5830
time step continuity errors : sum local = 9.08498e-08, global = 2.87815e-20, cumulative = 1.70228e-19
ExecutionTime = 0.79 s  ClockTime = 1 s

Time = 0.008

Courant Number mean: 0.0106744 max: 0.0481313
DILUPBiCGStab:  Solving for Ux, Initial residual = 0.0281933, Final residual = 6.84843e-21, No Iterations 5
DILUPBiCGStab:  Solving for Uy, Initial residual = 0.0357801, Final residual = 5.92373e-21, No Iterations 5
DILUPBiCGStab:  Solving for Uz, Initial residual = 0.086641, Final residual = 3.6237e-20, No Iterations 5
linear solve U 646
[OGL LOG] init_host_sparsity_pattern : 0 ms
[OGL LOG] matrix not stored update host matrix
[OGL LOG] update_host_mtx : 0 ms
[OGL LOG] matrix is not yet sorted, sorting host matrix
[OGL LOG] sort_host_mtx_sparsity_pattern : 0 ms
[OGL LOG] sort_host_mtx : 0 ms
[OGL LOG] init_preconditioner : 0 ms
[OGL LOG] solve : 5 ms
nonehipGKOBiCGStab:  Solving for p, Initial residual = 0.0168539, Final residual = 9.75068e-05, No Iterations 20
linear solve p 7079
time step continuity errors : sum local = 1.0991e-07, global = -1.2073e-21, cumulative = 1.69021e-19
[OGL LOG] init_host_sparsity_pattern : 0 ms
[OGL LOG] matrix not stored update host matrix
[OGL LOG] update_host_mtx : 0 ms
[OGL LOG] matrix is not yet sorted, sorting host matrix
[OGL LOG] sort_host_mtx_sparsity_pattern : 0 ms
[OGL LOG] sort_host_mtx : 0 ms
[OGL LOG] init_preconditioner : 0 ms
[OGL LOG] solve : 4 ms
nonehipGKOBiCGStab:  Solving for p, Initial residual = 0.00392754, Final residual = 8.52721e-05, No Iterations 15
linear solve p 5815
time step continuity errors : sum local = 8.6959e-08, global = 3.62884e-21, cumulative = 1.7265e-19
ExecutionTime = 0.81 s  ClockTime = 1 s

Time = 0.009

Courant Number mean: 0.0113439 max: 0.0508022
DILUPBiCGStab:  Solving for Ux, Initial residual = 0.0231979, Final residual = 5.57787e-21, No Iterations 5
DILUPBiCGStab:  Solving for Uy, Initial residual = 0.0293692, Final residual = 4.75326e-21, No Iterations 5
DILUPBiCGStab:  Solving for Uz, Initial residual = 0.0736948, Final residual = 2.88166e-20, No Iterations 5
linear solve U 641
[OGL LOG] init_host_sparsity_pattern : 0 ms
[OGL LOG] matrix not stored update host matrix
[OGL LOG] update_host_mtx : 0 ms
[OGL LOG] matrix is not yet sorted, sorting host matrix
[OGL LOG] sort_host_mtx_sparsity_pattern : 0 ms
[OGL LOG] sort_host_mtx : 0 ms
[OGL LOG] init_preconditioner : 0 ms
[OGL LOG] solve : 5 ms
nonehipGKOBiCGStab:  Solving for p, Initial residual = 0.0150891, Final residual = 9.5019e-05, No Iterations 20
linear solve p 7220
time step continuity errors : sum local = 1.54323e-07, global = -1.99268e-20, cumulative = 1.52723e-19
[OGL LOG] init_host_sparsity_pattern : 0 ms
[OGL LOG] matrix not stored update host matrix
[OGL LOG] update_host_mtx : 0 ms
[OGL LOG] matrix is not yet sorted, sorting host matrix
[OGL LOG] sort_host_mtx_sparsity_pattern : 0 ms
[OGL LOG] sort_host_mtx : 0 ms
[OGL LOG] init_preconditioner : 0 ms
[OGL LOG] solve : 4 ms
nonehipGKOBiCGStab:  Solving for p, Initial residual = 0.00337186, Final residual = 9.93945e-05, No Iterations 14
linear solve p 5577
time step continuity errors : sum local = 1.44663e-07, global = 5.3684e-21, cumulative = 1.58091e-19
ExecutionTime = 0.84 s  ClockTime = 1 s

Time = 0.01

Courant Number mean: 0.0119441 max: 0.053017
DILUPBiCGStab:  Solving for Ux, Initial residual = 0.0193008, Final residual = 4.68985e-21, No Iterations 5
DILUPBiCGStab:  Solving for Uy, Initial residual = 0.0245475, Final residual = 4.1331e-21, No Iterations 5
DILUPBiCGStab:  Solving for Uz, Initial residual = 0.0639443, Final residual = 2.55654e-20, No Iterations 5
linear solve U 644
[OGL LOG] init_host_sparsity_pattern : 0 ms
[OGL LOG] matrix not stored update host matrix
[OGL LOG] update_host_mtx : 0 ms
[OGL LOG] matrix is not yet sorted, sorting host matrix
[OGL LOG] sort_host_mtx_sparsity_pattern : 0 ms
[OGL LOG] sort_host_mtx : 0 ms
[OGL LOG] init_preconditioner : 0 ms
[OGL LOG] solve : 11 ms
nonehipGKOBiCGStab:  Solving for p, Initial residual = 0.0134792, Final residual = 9.12562e-05, No Iterations 43
linear solve p 13104
time step continuity errors : sum local = 1.11786e-07, global = -3.46324e-20, cumulative = 1.23459e-19
[OGL LOG] init_host_sparsity_pattern : 0 ms
[OGL LOG] matrix not stored update host matrix
[OGL LOG] update_host_mtx : 0 ms
[OGL LOG] matrix is not yet sorted, sorting host matrix
[OGL LOG] sort_host_mtx_sparsity_pattern : 0 ms
[OGL LOG] sort_host_mtx : 0 ms
[OGL LOG] init_preconditioner : 0 ms
[OGL LOG] solve : 4 ms
nonehipGKOBiCGStab:  Solving for p, Initial residual = 0.00272705, Final residual = 8.33918e-05, No Iterations 15
linear solve p 5831
time step continuity errors : sum local = 8.73919e-08, global = -2.70091e-20, cumulative = 9.64499e-20
ExecutionTime = 0.87 s  ClockTime = 1 s

End

