/*---------------------------------------------------------------------------*\
  =========                 |
  \\      /  F ield         | OpenFOAM: The Open Source CFD Toolbox
   \\    /   O peration     | Website:  https://openfoam.org
    \\  /    A nd           | Version:  8
     \\/     M anipulation  |
\*---------------------------------------------------------------------------*/
Build  : 8-ef60d22ea792
Exec   : icoFoam
Date   : Jul 28 2021
Time   : 23:31:57
Host   : "uc2n420.localdomain"
PID    : 979687
I/O    : uncollated
Case   : /pfs/data5/home/kit/scc/nq7776/code/OBR/lidDrivenCavity3D/Variation_mesh/65/Variation_matrix_solver/BiCGStab_NoPrecond_Serial/base
nProcs : 1
sigFpe : Enabling floating point exception trapping (FOAM_SIGFPE).
fileModificationChecking : Monitoring run-time modified files using timeStampMaster (fileModificationSkew 10)
allowSystemOperations : Allowing user-supplied system call operations

// * * * * * * * * * * * * * * * * * * * * * * * * * * * * * * * * * * * * * //
Create time

Create mesh for time = 0

Reading transportProperties

Reading field p

Reading field U

Reading/calculating face flux field phi


Starting time loop

Time = 0.001

Courant Number mean: 0 max: 0
DILUPBiCGStab:  Solving for Ux, Initial residual = 1, Final residual = 0.0009093, No Iterations 5
DILUPBiCGStab:  Solving for Uy:  solution singularity
DILUPBiCGStab:  Solving for Uz:  solution singularity
linear solve U 135116
nonePBiCGStab:  Solving for p, Initial residual = 1, Final residual = 7.35932e-05, No Iterations 426
linear solve p 3095426
time step continuity errors : sum local = 8.64683e-08, global = 3.45327e-21, cumulative = 3.45327e-21
nonePBiCGStab:  Solving for p, Initial residual = 0.710777, Final residual = 6.95558e-05, No Iterations 412
linear solve p 2978257
time step continuity errors : sum local = 1.10007e-07, global = 6.73648e-22, cumulative = 4.12692e-21
ExecutionTime = 7.43 s  ClockTime = 7 s

Time = 0.002

Courant Number mean: 0.03646 max: 0.470838
DILUPBiCGStab:  Solving for Ux, Initial residual = 0.154567, Final residual = 0.00027168, No Iterations 5
DILUPBiCGStab:  Solving for Uy, Initial residual = 0.350397, Final residual = 0.000506055, No Iterations 5
DILUPBiCGStab:  Solving for Uz, Initial residual = 0.977764, Final residual = 0.00180067, No Iterations 5
linear solve U 252744
nonePBiCGStab:  Solving for p, Initial residual = 0.646216, Final residual = 9.17616e-05, No Iterations 395
linear solve p 2863277
time step continuity errors : sum local = 1.54093e-07, global = 3.28781e-21, cumulative = 7.41473e-21
nonePBiCGStab:  Solving for p, Initial residual = 0.569551, Final residual = 9.94203e-05, No Iterations 380
linear solve p 2750544
time step continuity errors : sum local = 1.71074e-07, global = 9.81375e-21, cumulative = 1.72285e-20
ExecutionTime = 13.44 s  ClockTime = 13 s

Time = 0.003

Courant Number mean: 0.0547174 max: 0.564564
DILUPBiCGStab:  Solving for Ux, Initial residual = 0.0504328, Final residual = 5.41447e-05, No Iterations 5
DILUPBiCGStab:  Solving for Uy, Initial residual = 0.111001, Final residual = 0.000122992, No Iterations 5
DILUPBiCGStab:  Solving for Uz, Initial residual = 0.445385, Final residual = 0.000967315, No Iterations 5
linear solve U 252590
nonePBiCGStab:  Solving for p, Initial residual = 0.549873, Final residual = 7.77082e-05, No Iterations 327
linear solve p 2402138
time step continuity errors : sum local = 5.62703e-08, global = -5.71939e-21, cumulative = 1.15091e-20
nonePBiCGStab:  Solving for p, Initial residual = 0.492867, Final residual = 9.99881e-05, No Iterations 374
linear solve p 2732610
time step continuity errors : sum local = 6.44344e-08, global = -1.77723e-20, cumulative = -6.26323e-21
ExecutionTime = 18.96 s  ClockTime = 19 s

Time = 0.004

Courant Number mean: 0.0646009 max: 0.579613
DILUPBiCGStab:  Solving for Ux, Initial residual = 0.0291488, Final residual = 3.32962e-05, No Iterations 5
DILUPBiCGStab:  Solving for Uy, Initial residual = 0.0721602, Final residual = 5.60588e-05, No Iterations 5
DILUPBiCGStab:  Solving for Uz, Initial residual = 0.246874, Final residual = 0.000379221, No Iterations 5
linear solve U 254310
nonePBiCGStab:  Solving for p, Initial residual = 0.319671, Final residual = 8.58811e-05, No Iterations 387
linear solve p 2806691
time step continuity errors : sum local = 7.02967e-08, global = 1.62815e-21, cumulative = -4.63508e-21
nonePBiCGStab:  Solving for p, Initial residual = 0.264494, Final residual = 9.71493e-05, No Iterations 362
linear solve p 2632520
time step continuity errors : sum local = 9.24171e-08, global = 3.65942e-21, cumulative = -9.7566e-22
ExecutionTime = 24.8 s  ClockTime = 24 s

Time = 0.005

Courant Number mean: 0.0722272 max: 0.589266
DILUPBiCGStab:  Solving for Ux, Initial residual = 0.0206211, Final residual = 1.46954e-05, No Iterations 5
DILUPBiCGStab:  Solving for Uy, Initial residual = 0.045197, Final residual = 3.56036e-05, No Iterations 5
DILUPBiCGStab:  Solving for Uz, Initial residual = 0.112129, Final residual = 0.000159493, No Iterations 5
linear solve U 251062
nonePBiCGStab:  Solving for p, Initial residual = 0.21767, Final residual = 1.3285e-05, No Iterations 355
linear solve p 2584699
time step continuity errors : sum local = 1.21669e-08, global = 1.42045e-20, cumulative = 1.32289e-20
nonePBiCGStab:  Solving for p, Initial residual = 0.183095, Final residual = 7.59864e-05, No Iterations 344
linear solve p 2506901
time step continuity errors : sum local = 4.31444e-08, global = 2.68746e-22, cumulative = 1.34976e-20
ExecutionTime = 30.28 s  ClockTime = 30 s

Time = 0.006

Courant Number mean: 0.0781088 max: 0.595044
DILUPBiCGStab:  Solving for Ux, Initial residual = 0.0154014, Final residual = 1.30005e-05, No Iterations 5
DILUPBiCGStab:  Solving for Uy, Initial residual = 0.0343304, Final residual = 1.5147e-05, No Iterations 5
DILUPBiCGStab:  Solving for Uz, Initial residual = 0.0820362, Final residual = 0.000101292, No Iterations 5
linear solve U 252656
nonePBiCGStab:  Solving for p, Initial residual = 0.129098, Final residual = 3.23521e-05, No Iterations 367
linear solve p 2671396
time step continuity errors : sum local = 1.70312e-08, global = 1.50338e-20, cumulative = 2.85315e-20
nonePBiCGStab:  Solving for p, Initial residual = 0.105865, Final residual = 9.75149e-05, No Iterations 306
linear solve p 2220740
time step continuity errors : sum local = 8.70284e-08, global = 2.31391e-21, cumulative = 3.08454e-20
ExecutionTime = 35.57 s  ClockTime = 35 s

Time = 0.007

Courant Number mean: 0.0829407 max: 0.598973
DILUPBiCGStab:  Solving for Ux, Initial residual = 0.0121849, Final residual = 5.85747e-06, No Iterations 5
DILUPBiCGStab:  Solving for Uy, Initial residual = 0.027347, Final residual = 1.54052e-05, No Iterations 5
DILUPBiCGStab:  Solving for Uz, Initial residual = 0.0625685, Final residual = 7.98509e-05, No Iterations 5
linear solve U 254646
nonePBiCGStab:  Solving for p, Initial residual = 0.0871023, Final residual = 8.92115e-05, No Iterations 330
linear solve p 2390056
time step continuity errors : sum local = 4.64745e-08, global = 5.19683e-21, cumulative = 3.60422e-20
nonePBiCGStab:  Solving for p, Initial residual = 0.072317, Final residual = 9.50195e-05, No Iterations 293
linear solve p 2114827
time step continuity errors : sum local = 8.2381e-08, global = -1.59388e-20, cumulative = 2.01034e-20
ExecutionTime = 40.47 s  ClockTime = 40 s

Time = 0.008

Courant Number mean: 0.0869919 max: 0.601981
DILUPBiCGStab:  Solving for Ux, Initial residual = 0.0101657, Final residual = 4.72619e-06, No Iterations 5
DILUPBiCGStab:  Solving for Uy, Initial residual = 0.0222553, Final residual = 7.16979e-06, No Iterations 5
DILUPBiCGStab:  Solving for Uz, Initial residual = 0.0557858, Final residual = 7.26124e-05, No Iterations 5
linear solve U 250865
nonePBiCGStab:  Solving for p, Initial residual = 0.0576703, Final residual = 9.53809e-05, No Iterations 350
linear solve p 2548389
time step continuity errors : sum local = 4.92469e-08, global = -1.03439e-21, cumulative = 1.9069e-20
nonePBiCGStab:  Solving for p, Initial residual = 0.0482022, Final residual = 9.68757e-05, No Iterations 308
linear solve p 2248265
time step continuity errors : sum local = 8.36356e-08, global = 3.86478e-21, cumulative = 2.29337e-20
ExecutionTime = 45.67 s  ClockTime = 45 s

Time = 0.009

Courant Number mean: 0.0904665 max: 0.604265
DILUPBiCGStab:  Solving for Ux, Initial residual = 0.00842964, Final residual = 3.05854e-06, No Iterations 5
DILUPBiCGStab:  Solving for Uy, Initial residual = 0.0192443, Final residual = 7.6076e-06, No Iterations 5
DILUPBiCGStab:  Solving for Uz, Initial residual = 0.0520371, Final residual = 7.09174e-05, No Iterations 5
linear solve U 254920
nonePBiCGStab:  Solving for p, Initial residual = 0.0425493, Final residual = 9.09195e-05, No Iterations 305
linear solve p 2216223
time step continuity errors : sum local = 7.24533e-08, global = 8.95651e-21, cumulative = 3.18903e-20
nonePBiCGStab:  Solving for p, Initial residual = 0.0361626, Final residual = 9.97035e-05, No Iterations 289
linear solve p 2105229
time step continuity errors : sum local = 8.44862e-08, global = -1.4686e-20, cumulative = 1.72042e-20
ExecutionTime = 50.39 s  ClockTime = 50 s

Time = 0.01

Courant Number mean: 0.0934699 max: 0.606136
DILUPBiCGStab:  Solving for Ux, Initial residual = 0.00746103, Final residual = 2.9376e-06, No Iterations 5
DILUPBiCGStab:  Solving for Uy, Initial residual = 0.0162072, Final residual = 7.06974e-06, No Iterations 5
DILUPBiCGStab:  Solving for Uz, Initial residual = 0.0515821, Final residual = 7.70588e-05, No Iterations 5
linear solve U 250932
nonePBiCGStab:  Solving for p, Initial residual = 0.0329505, Final residual = 9.6193e-05, No Iterations 364
linear solve p 2670701
time step continuity errors : sum local = 4.3549e-08, global = 3.61354e-21, cumulative = 2.08177e-20
nonePBiCGStab:  Solving for p, Initial residual = 0.0288756, Final residual = 9.6003e-05, No Iterations 322
linear solve p 2348654
time step continuity errors : sum local = 5.89176e-08, global = 7.31156e-21, cumulative = 2.81293e-20
ExecutionTime = 55.8 s  ClockTime = 56 s

End

