/*---------------------------------------------------------------------------*\
  =========                 |
  \\      /  F ield         | OpenFOAM: The Open Source CFD Toolbox
   \\    /   O peration     | Website:  https://openfoam.org
    \\  /    A nd           | Version:  8
     \\/     M anipulation  |
\*---------------------------------------------------------------------------*/
Build  : 8-ef60d22ea792
Exec   : icoFoam
Date   : Jul 29 2021
Time   : 04:02:55
Host   : "uc2n414.localdomain"
PID    : 2865748
I/O    : uncollated
Case   : /pfs/data5/home/kit/scc/nq7776/code/OBR/lidDrivenCavity3D/Variation_mesh/70/Variation_matrix_solver/BiCGStab_BJ_OMP/base
nProcs : 1
sigFpe : Enabling floating point exception trapping (FOAM_SIGFPE).
fileModificationChecking : Monitoring run-time modified files using timeStampMaster (fileModificationSkew 10)
allowSystemOperations : Allowing user-supplied system call operations

// * * * * * * * * * * * * * * * * * * * * * * * * * * * * * * * * * * * * * //
Create time

Create mesh for time = 0

Reading transportProperties

Reading field p

Reading field U

Reading/calculating face flux field phi


Starting time loop

Time = 0.001

Courant Number mean: 0 max: 0
DILUPBiCGStab:  Solving for Ux, Initial residual = 1, Final residual = 0.00143011, No Iterations 5
DILUPBiCGStab:  Solving for Uy:  solution singularity
DILUPBiCGStab:  Solving for Uz:  solution singularity
linear solve U 161443
[OGL LOG] init_host_sparsity_pattern : 99 ms
[OGL LOG] matrix not stored update host matrix
[OGL LOG] update_host_mtx : 51 ms
[OGL LOG] matrix is not yet sorted, compute sorting idxs
[OGL LOG] compute_sort : 3000 ms
[OGL LOG] matrix is not yet sorted, sorting host matrix
[OGL LOG] sort_host_mtx_sparsity_pattern : 71 ms
[OGL LOG] sort_host_mtx : 42 ms
[OGL LOG] init_preconditioner : 93 ms
[OGL LOG] solve : 22575 ms
BJompGKOBiCGStab:  Solving for p, Initial residual = 1, Final residual = 1.60139e-05, No Iterations 385
linear solve p 26005939
time step continuity errors : sum local = 6.51117e-07, global = 9.35541e-21, cumulative = 9.35541e-21
[OGL LOG] init_host_sparsity_pattern : 99 ms
[OGL LOG] matrix not stored update host matrix
[OGL LOG] update_host_mtx : 52 ms
[OGL LOG] matrix is not yet sorted, sorting host matrix
[OGL LOG] sort_host_mtx_sparsity_pattern : 71 ms
[OGL LOG] sort_host_mtx : 37 ms
[OGL LOG] init_preconditioner : 0 ms
[OGL LOG] solve : 20265 ms
BJompGKOBiCGStab:  Solving for p, Initial residual = 0.725335, Final residual = 9.2533e-05, No Iterations 346
linear solve p 20570633
time step continuity errors : sum local = 2.65259e-07, global = 3.31944e-21, cumulative = 1.26748e-20
ExecutionTime = 48.07 s  ClockTime = 48 s

Time = 0.002

Courant Number mean: 0.039403 max: 0.518352
DILUPBiCGStab:  Solving for Ux, Initial residual = 0.151405, Final residual = 0.000460023, No Iterations 5
DILUPBiCGStab:  Solving for Uy, Initial residual = 0.361723, Final residual = 0.000929032, No Iterations 5
DILUPBiCGStab:  Solving for Uz, Initial residual = 0.98144, Final residual = 0.00307357, No Iterations 5
linear solve U 318521
[OGL LOG] init_host_sparsity_pattern : 96 ms
[OGL LOG] matrix not stored update host matrix
[OGL LOG] update_host_mtx : 51 ms
[OGL LOG] matrix is not yet sorted, sorting host matrix
[OGL LOG] sort_host_mtx_sparsity_pattern : 71 ms
[OGL LOG] sort_host_mtx : 39 ms
[OGL LOG] init_preconditioner : 0 ms
[OGL LOG] solve : 18943 ms
BJompGKOBiCGStab:  Solving for p, Initial residual = 0.67458, Final residual = 9.75768e-05, No Iterations 323
linear solve p 19244441
time step continuity errors : sum local = 1.56287e-07, global = -1.1823e-20, cumulative = 8.51867e-22
[OGL LOG] init_host_sparsity_pattern : 91 ms
[OGL LOG] matrix not stored update host matrix
[OGL LOG] update_host_mtx : 46 ms
[OGL LOG] matrix is not yet sorted, sorting host matrix
[OGL LOG] sort_host_mtx_sparsity_pattern : 71 ms
[OGL LOG] sort_host_mtx : 35 ms
[OGL LOG] init_preconditioner : 0 ms
[OGL LOG] solve : 18008 ms
BJompGKOBiCGStab:  Solving for p, Initial residual = 0.60188, Final residual = 9.48516e-05, No Iterations 307
linear solve p 18298859
time step continuity errors : sum local = 3.32185e-07, global = 7.94061e-21, cumulative = 8.79248e-21
ExecutionTime = 86.04 s  ClockTime = 86 s

Time = 0.003

Courant Number mean: 0.0591424 max: 0.616313
DILUPBiCGStab:  Solving for Ux, Initial residual = 0.051882, Final residual = 0.000106429, No Iterations 5
DILUPBiCGStab:  Solving for Uy, Initial residual = 0.120462, Final residual = 0.000228097, No Iterations 5
DILUPBiCGStab:  Solving for Uz, Initial residual = 0.555818, Final residual = 0.00208374, No Iterations 5
linear solve U 315533
[OGL LOG] init_host_sparsity_pattern : 93 ms
[OGL LOG] matrix not stored update host matrix
[OGL LOG] update_host_mtx : 51 ms
[OGL LOG] matrix is not yet sorted, sorting host matrix
[OGL LOG] sort_host_mtx_sparsity_pattern : 71 ms
[OGL LOG] sort_host_mtx : 34 ms
[OGL LOG] init_preconditioner : 0 ms
[OGL LOG] solve : 19161 ms
BJompGKOBiCGStab:  Solving for p, Initial residual = 0.61134, Final residual = 9.68386e-05, No Iterations 327
linear solve p 19455664
time step continuity errors : sum local = 8.06477e-08, global = 7.01592e-21, cumulative = 1.58084e-20
[OGL LOG] init_host_sparsity_pattern : 91 ms
[OGL LOG] matrix not stored update host matrix
[OGL LOG] update_host_mtx : 51 ms
[OGL LOG] matrix is not yet sorted, sorting host matrix
[OGL LOG] sort_host_mtx_sparsity_pattern : 71 ms
[OGL LOG] sort_host_mtx : 35 ms
[OGL LOG] init_preconditioner : 0 ms
[OGL LOG] solve : 15468 ms
BJompGKOBiCGStab:  Solving for p, Initial residual = 0.55846, Final residual = 9.18366e-05, No Iterations 264
linear solve p 15763369
time step continuity errors : sum local = 7.84858e-08, global = 2.58391e-21, cumulative = 1.83923e-20
ExecutionTime = 121.68 s  ClockTime = 122 s

Time = 0.004

Courant Number mean: 0.0696162 max: 0.629529
DILUPBiCGStab:  Solving for Ux, Initial residual = 0.0289121, Final residual = 5.82462e-05, No Iterations 5
DILUPBiCGStab:  Solving for Uy, Initial residual = 0.0795495, Final residual = 0.000132986, No Iterations 5
DILUPBiCGStab:  Solving for Uz, Initial residual = 0.301205, Final residual = 0.000742393, No Iterations 5
linear solve U 317116
[OGL LOG] init_host_sparsity_pattern : 92 ms
[OGL LOG] matrix not stored update host matrix
[OGL LOG] update_host_mtx : 50 ms
[OGL LOG] matrix is not yet sorted, sorting host matrix
[OGL LOG] sort_host_mtx_sparsity_pattern : 72 ms
[OGL LOG] sort_host_mtx : 36 ms
[OGL LOG] init_preconditioner : 0 ms
[OGL LOG] solve : 18600 ms
BJompGKOBiCGStab:  Solving for p, Initial residual = 0.388444, Final residual = 2.86155e-05, No Iterations 318
linear solve p 18896392
time step continuity errors : sum local = 3.00922e-08, global = 7.04484e-21, cumulative = 2.54372e-20
[OGL LOG] init_host_sparsity_pattern : 92 ms
[OGL LOG] matrix not stored update host matrix
[OGL LOG] update_host_mtx : 50 ms
[OGL LOG] matrix is not yet sorted, sorting host matrix
[OGL LOG] sort_host_mtx_sparsity_pattern : 70 ms
[OGL LOG] sort_host_mtx : 35 ms
[OGL LOG] init_preconditioner : 0 ms
[OGL LOG] solve : 19095 ms
BJompGKOBiCGStab:  Solving for p, Initial residual = 0.327665, Final residual = 9.98692e-05, No Iterations 326
linear solve p 19388792
time step continuity errors : sum local = 5.65255e-08, global = 9.04975e-21, cumulative = 3.44869e-20
ExecutionTime = 160.38 s  ClockTime = 161 s

Time = 0.005

Courant Number mean: 0.0778378 max: 0.639364
DILUPBiCGStab:  Solving for Ux, Initial residual = 0.020648, Final residual = 3.14283e-05, No Iterations 5
DILUPBiCGStab:  Solving for Uy, Initial residual = 0.0460165, Final residual = 6.1267e-05, No Iterations 5
DILUPBiCGStab:  Solving for Uz, Initial residual = 0.111131, Final residual = 0.000265378, No Iterations 5
linear solve U 317409
[OGL LOG] init_host_sparsity_pattern : 91 ms
[OGL LOG] matrix not stored update host matrix
[OGL LOG] update_host_mtx : 51 ms
[OGL LOG] matrix is not yet sorted, sorting host matrix
[OGL LOG] sort_host_mtx_sparsity_pattern : 71 ms
[OGL LOG] sort_host_mtx : 35 ms
[OGL LOG] init_preconditioner : 0 ms
[OGL LOG] solve : 14608 ms
BJompGKOBiCGStab:  Solving for p, Initial residual = 0.291661, Final residual = 9.9205e-05, No Iterations 249
linear solve p 14900113
time step continuity errors : sum local = 1.01549e-07, global = 6.89419e-21, cumulative = 4.13811e-20
[OGL LOG] init_host_sparsity_pattern : 90 ms
[OGL LOG] matrix not stored update host matrix
[OGL LOG] update_host_mtx : 50 ms
[OGL LOG] matrix is not yet sorted, sorting host matrix
[OGL LOG] sort_host_mtx_sparsity_pattern : 71 ms
[OGL LOG] sort_host_mtx : 35 ms
[OGL LOG] init_preconditioner : 0 ms
[OGL LOG] solve : 7712 ms
BJompGKOBiCGStab:  Solving for p, Initial residual = 0.249174, Final residual = 9.65831e-05, No Iterations 131
linear solve p 8006673
time step continuity errors : sum local = 5.21002e-08, global = -3.84155e-21, cumulative = 3.75395e-20
ExecutionTime = 183.74 s  ClockTime = 184 s

Time = 0.006

Courant Number mean: 0.0841403 max: 0.645104
DILUPBiCGStab:  Solving for Ux, Initial residual = 0.0149601, Final residual = 2.2021e-05, No Iterations 5
DILUPBiCGStab:  Solving for Uy, Initial residual = 0.0356233, Final residual = 3.75594e-05, No Iterations 5
DILUPBiCGStab:  Solving for Uz, Initial residual = 0.0961254, Final residual = 0.000234188, No Iterations 5
linear solve U 317515
[OGL LOG] init_host_sparsity_pattern : 91 ms
[OGL LOG] matrix not stored update host matrix
[OGL LOG] update_host_mtx : 52 ms
[OGL LOG] matrix is not yet sorted, sorting host matrix
[OGL LOG] sort_host_mtx_sparsity_pattern : 71 ms
[OGL LOG] sort_host_mtx : 35 ms
[OGL LOG] init_preconditioner : 0 ms
[OGL LOG] solve : 18572 ms
BJompGKOBiCGStab:  Solving for p, Initial residual = 0.180266, Final residual = 8.56737e-05, No Iterations 317
linear solve p 18865608
time step continuity errors : sum local = 5.6526e-08, global = -3.06628e-21, cumulative = 3.44733e-20
[OGL LOG] init_host_sparsity_pattern : 92 ms
[OGL LOG] matrix not stored update host matrix
[OGL LOG] update_host_mtx : 50 ms
[OGL LOG] matrix is not yet sorted, sorting host matrix
[OGL LOG] sort_host_mtx_sparsity_pattern : 72 ms
[OGL LOG] sort_host_mtx : 36 ms
[OGL LOG] init_preconditioner : 0 ms
[OGL LOG] solve : 18748 ms
BJompGKOBiCGStab:  Solving for p, Initial residual = 0.149252, Final residual = 9.22956e-05, No Iterations 319
linear solve p 19045313
time step continuity errors : sum local = 5.84033e-08, global = -2.66803e-21, cumulative = 3.18052e-20
ExecutionTime = 222.06 s  ClockTime = 223 s

Time = 0.007

Courant Number mean: 0.0893591 max: 0.648981
DILUPBiCGStab:  Solving for Ux, Initial residual = 0.0119703, Final residual = 1.2374e-05, No Iterations 5
DILUPBiCGStab:  Solving for Uy, Initial residual = 0.0274298, Final residual = 2.87221e-05, No Iterations 5
DILUPBiCGStab:  Solving for Uz, Initial residual = 0.0666513, Final residual = 0.000118343, No Iterations 5
linear solve U 314781
[OGL LOG] init_host_sparsity_pattern : 93 ms
[OGL LOG] matrix not stored update host matrix
[OGL LOG] update_host_mtx : 50 ms
[OGL LOG] matrix is not yet sorted, sorting host matrix
[OGL LOG] sort_host_mtx_sparsity_pattern : 71 ms
[OGL LOG] sort_host_mtx : 36 ms
[OGL LOG] init_preconditioner : 0 ms
[OGL LOG] solve : 13890 ms
BJompGKOBiCGStab:  Solving for p, Initial residual = 0.126901, Final residual = 9.85543e-05, No Iterations 237
linear solve p 14184849
time step continuity errors : sum local = 8.19948e-08, global = 6.21071e-21, cumulative = 3.80159e-20
[OGL LOG] init_host_sparsity_pattern : 91 ms
[OGL LOG] matrix not stored update host matrix
[OGL LOG] update_host_mtx : 50 ms
[OGL LOG] matrix is not yet sorted, sorting host matrix
[OGL LOG] sort_host_mtx_sparsity_pattern : 71 ms
[OGL LOG] sort_host_mtx : 35 ms
[OGL LOG] init_preconditioner : 0 ms
[OGL LOG] solve : 7256 ms
BJompGKOBiCGStab:  Solving for p, Initial residual = 0.106146, Final residual = 9.77923e-05, No Iterations 123
linear solve p 7549667
time step continuity errors : sum local = 5.99848e-08, global = 4.5874e-21, cumulative = 4.26033e-20
ExecutionTime = 244.25 s  ClockTime = 245 s

Time = 0.008

Courant Number mean: 0.0937077 max: 0.652046
DILUPBiCGStab:  Solving for Ux, Initial residual = 0.0097375, Final residual = 9.94908e-06, No Iterations 5
DILUPBiCGStab:  Solving for Uy, Initial residual = 0.022503, Final residual = 1.44552e-05, No Iterations 5
DILUPBiCGStab:  Solving for Uz, Initial residual = 0.0570272, Final residual = 0.000112166, No Iterations 5
linear solve U 312787
[OGL LOG] init_host_sparsity_pattern : 91 ms
[OGL LOG] matrix not stored update host matrix
[OGL LOG] update_host_mtx : 51 ms
[OGL LOG] matrix is not yet sorted, sorting host matrix
[OGL LOG] sort_host_mtx_sparsity_pattern : 71 ms
[OGL LOG] sort_host_mtx : 35 ms
[OGL LOG] init_preconditioner : 0 ms
[OGL LOG] solve : 15791 ms
BJompGKOBiCGStab:  Solving for p, Initial residual = 0.0830163, Final residual = 6.38933e-05, No Iterations 270
linear solve p 16083546
time step continuity errors : sum local = 4.04828e-08, global = -6.34139e-21, cumulative = 3.62619e-20
[OGL LOG] init_host_sparsity_pattern : 92 ms
[OGL LOG] matrix not stored update host matrix
[OGL LOG] update_host_mtx : 51 ms
[OGL LOG] matrix is not yet sorted, sorting host matrix
[OGL LOG] sort_host_mtx_sparsity_pattern : 70 ms
[OGL LOG] sort_host_mtx : 35 ms
[OGL LOG] init_preconditioner : 0 ms
[OGL LOG] solve : 8350 ms
BJompGKOBiCGStab:  Solving for p, Initial residual = 0.0687505, Final residual = 9.85745e-05, No Iterations 142
linear solve p 8645093
time step continuity errors : sum local = 7.83182e-08, global = 4.01568e-21, cumulative = 4.02776e-20
ExecutionTime = 269.42 s  ClockTime = 270 s

Time = 0.009

Courant Number mean: 0.0974503 max: 0.654281
DILUPBiCGStab:  Solving for Ux, Initial residual = 0.00810404, Final residual = 5.81373e-06, No Iterations 5
DILUPBiCGStab:  Solving for Uy, Initial residual = 0.0192874, Final residual = 1.53621e-05, No Iterations 5
DILUPBiCGStab:  Solving for Uz, Initial residual = 0.0510112, Final residual = 0.000115977, No Iterations 5
linear solve U 315613
[OGL LOG] init_host_sparsity_pattern : 93 ms
[OGL LOG] matrix not stored update host matrix
[OGL LOG] update_host_mtx : 51 ms
[OGL LOG] matrix is not yet sorted, sorting host matrix
[OGL LOG] sort_host_mtx_sparsity_pattern : 71 ms
[OGL LOG] sort_host_mtx : 36 ms
[OGL LOG] init_preconditioner : 0 ms
[OGL LOG] solve : 16170 ms
BJompGKOBiCGStab:  Solving for p, Initial residual = 0.0623959, Final residual = 9.7832e-05, No Iterations 276
linear solve p 16466054
time step continuity errors : sum local = 4.32141e-08, global = -2.40008e-21, cumulative = 3.78775e-20
[OGL LOG] init_host_sparsity_pattern : 92 ms
[OGL LOG] matrix not stored update host matrix
[OGL LOG] update_host_mtx : 51 ms
[OGL LOG] matrix is not yet sorted, sorting host matrix
[OGL LOG] sort_host_mtx_sparsity_pattern : 70 ms
[OGL LOG] sort_host_mtx : 34 ms
[OGL LOG] init_preconditioner : 0 ms
[OGL LOG] solve : 15263 ms
BJompGKOBiCGStab:  Solving for p, Initial residual = 0.0525431, Final residual = 9.55955e-05, No Iterations 260
linear solve p 15556769
time step continuity errors : sum local = 6.87884e-08, global = -1.50156e-20, cumulative = 2.2862e-20
ExecutionTime = 301.87 s  ClockTime = 303 s

Time = 0.01

Courant Number mean: 0.100694 max: 0.656148
DILUPBiCGStab:  Solving for Ux, Initial residual = 0.00709669, Final residual = 4.52012e-06, No Iterations 5
DILUPBiCGStab:  Solving for Uy, Initial residual = 0.0162348, Final residual = 9.52326e-06, No Iterations 5
DILUPBiCGStab:  Solving for Uz, Initial residual = 0.0474199, Final residual = 9.43605e-05, No Iterations 5
linear solve U 314094
[OGL LOG] init_host_sparsity_pattern : 92 ms
[OGL LOG] matrix not stored update host matrix
[OGL LOG] update_host_mtx : 51 ms
[OGL LOG] matrix is not yet sorted, sorting host matrix
[OGL LOG] sort_host_mtx_sparsity_pattern : 70 ms
[OGL LOG] sort_host_mtx : 35 ms
[OGL LOG] init_preconditioner : 0 ms
[OGL LOG] solve : 17926 ms
BJompGKOBiCGStab:  Solving for p, Initial residual = 0.0439521, Final residual = 9.92698e-05, No Iterations 306
linear solve p 18220364
time step continuity errors : sum local = 8.19627e-08, global = 4.6372e-21, cumulative = 2.74992e-20
[OGL LOG] init_host_sparsity_pattern : 95 ms
[OGL LOG] matrix not stored update host matrix
[OGL LOG] update_host_mtx : 52 ms
[OGL LOG] matrix is not yet sorted, sorting host matrix
[OGL LOG] sort_host_mtx_sparsity_pattern : 70 ms
[OGL LOG] sort_host_mtx : 34 ms
[OGL LOG] init_preconditioner : 0 ms
[OGL LOG] solve : 15097 ms
BJompGKOBiCGStab:  Solving for p, Initial residual = 0.0373663, Final residual = 9.60936e-05, No Iterations 258
linear solve p 15396466
time step continuity errors : sum local = 6.84535e-08, global = 8.23167e-21, cumulative = 3.57308e-20
ExecutionTime = 335.91 s  ClockTime = 337 s

End

