/*---------------------------------------------------------------------------*\
  =========                 |
  \\      /  F ield         | OpenFOAM: The Open Source CFD Toolbox
   \\    /   O peration     | Website:  https://openfoam.org
    \\  /    A nd           | Version:  8
     \\/     M anipulation  |
\*---------------------------------------------------------------------------*/
Build  : 8-40a5a48f630f
Exec   : icoFoam
Date   : Jul 28 2021
Time   : 13:46:47
Host   : "uc2n449.localdomain"
PID    : 1435288
I/O    : uncollated
Case   : /pfs/data5/home/kit/scc/nq7776/code/OBR/lidDrivenCavity3D/Variation_mesh/70/Variation_matrix_solver/BiCGStab_BJ_OMP/base
nProcs : 1
sigFpe : Enabling floating point exception trapping (FOAM_SIGFPE).
fileModificationChecking : Monitoring run-time modified files using timeStampMaster (fileModificationSkew 10)
allowSystemOperations : Allowing user-supplied system call operations

// * * * * * * * * * * * * * * * * * * * * * * * * * * * * * * * * * * * * * //
Create time

Create mesh for time = 0

Reading transportProperties

Reading field p

Reading field U

Reading/calculating face flux field phi


Starting time loop

Time = 0.001

Courant Number mean: 0 max: 0
nonePBiCGStab:  Solving for Ux, Initial residual = 1, Final residual = 0.0584718, No Iterations 5
nonePBiCGStab:  Solving for Uy, Initial residual = 0, Final residual = 0, No Iterations 0
nonePBiCGStab:  Solving for Uz, Initial residual = 0, Final residual = 0, No Iterations 0
linear solve U 85
[OGL LOG] init_host_sparsity_pattern : 97 ms
[OGL LOG] matrix not stored update host matrix
[OGL LOG] update_host_mtx : 50 ms
[OGL LOG] matrix is not yet sorted, compute sorting idxs
[OGL LOG] compute_sort : 2941 ms
[OGL LOG] matrix is not yet sorted, sorting host matrix
[OGL LOG] sort_host_mtx_sparsity_pattern : 70 ms
[OGL LOG] sort_host_mtx : 42 ms
[OGL LOG] init_preconditioner : 20 ms
[OGL LOG] solve : 3657 ms
BJompGKOBiCGStab:  Solving for p, Initial residual = 1, Final residual = 7.96565e-05, No Iterations 341
linear solve p 6980
time step continuity errors : sum local = 3.11659e-07, global = -1.37623e-20, cumulative = -1.37623e-20
[OGL LOG] init_host_sparsity_pattern : 97 ms
[OGL LOG] matrix not stored update host matrix
[OGL LOG] update_host_mtx : 50 ms
[OGL LOG] matrix is not yet sorted, sorting host matrix
[OGL LOG] sort_host_mtx_sparsity_pattern : 77 ms
[OGL LOG] sort_host_mtx : 34 ms
[OGL LOG] init_preconditioner : 0 ms
[OGL LOG] solve : 3679 ms
BJompGKOBiCGStab:  Solving for p, Initial residual = 0.681401, Final residual = 2.10267e-05, No Iterations 349
linear solve p 4000
time step continuity errors : sum local = 2.06619e-05, global = -2.42078e-21, cumulative = -1.61831e-20
ExecutionTime = 296.33 s  ClockTime = 13 s

Time = 0.002

Courant Number mean: 0.0344696 max: 0.514722
nonePBiCGStab:  Solving for Ux, Initial residual = 0.14867, Final residual = 0.0244686, No Iterations 5
nonePBiCGStab:  Solving for Uy, Initial residual = 0.378755, Final residual = 0.0629659, No Iterations 5
nonePBiCGStab:  Solving for Uz, Initial residual = 0.885569, Final residual = 0.194724, No Iterations 5
linear solve U 169
[OGL LOG] init_host_sparsity_pattern : 93 ms
[OGL LOG] matrix not stored update host matrix
[OGL LOG] update_host_mtx : 50 ms
[OGL LOG] matrix is not yet sorted, sorting host matrix
[OGL LOG] sort_host_mtx_sparsity_pattern : 72 ms
[OGL LOG] sort_host_mtx : 34 ms
[OGL LOG] init_preconditioner : 0 ms
[OGL LOG] solve : 3709 ms
BJompGKOBiCGStab:  Solving for p, Initial residual = 0.684105, Final residual = 7.27496e-05, No Iterations 346
linear solve p 4011
time step continuity errors : sum local = 2.93563e-06, global = 1.38714e-20, cumulative = -2.31173e-21
[OGL LOG] init_host_sparsity_pattern : 94 ms
[OGL LOG] matrix not stored update host matrix
[OGL LOG] update_host_mtx : 50 ms
[OGL LOG] matrix is not yet sorted, sorting host matrix
[OGL LOG] sort_host_mtx_sparsity_pattern : 70 ms
[OGL LOG] sort_host_mtx : 34 ms
[OGL LOG] init_preconditioner : 0 ms
[OGL LOG] solve : 3734 ms
BJompGKOBiCGStab:  Solving for p, Initial residual = 0.600888, Final residual = 9.74641e-05, No Iterations 362
linear solve p 4034
time step continuity errors : sum local = 4.41258e-06, global = 2.98312e-21, cumulative = 6.71393e-22
ExecutionTime = 594.85 s  ClockTime = 21 s

Time = 0.003

Courant Number mean: 0.0530944 max: 0.605585
nonePBiCGStab:  Solving for Ux, Initial residual = 0.055798, Final residual = 0.00788074, No Iterations 5
nonePBiCGStab:  Solving for Uy, Initial residual = 0.140219, Final residual = 0.0274947, No Iterations 5
nonePBiCGStab:  Solving for Uz, Initial residual = 0.498652, Final residual = 0.117074, No Iterations 5
linear solve U 168
[OGL LOG] init_host_sparsity_pattern : 93 ms
[OGL LOG] matrix not stored update host matrix
[OGL LOG] update_host_mtx : 50 ms
[OGL LOG] matrix is not yet sorted, sorting host matrix
[OGL LOG] sort_host_mtx_sparsity_pattern : 72 ms
[OGL LOG] sort_host_mtx : 34 ms
[OGL LOG] init_preconditioner : 0 ms
[OGL LOG] solve : 3566 ms
BJompGKOBiCGStab:  Solving for p, Initial residual = 0.614406, Final residual = 8.25348e-05, No Iterations 334
linear solve p 3862
time step continuity errors : sum local = 2.11466e-07, global = -1.39628e-20, cumulative = -1.32914e-20
[OGL LOG] init_host_sparsity_pattern : 94 ms
[OGL LOG] matrix not stored update host matrix
[OGL LOG] update_host_mtx : 50 ms
[OGL LOG] matrix is not yet sorted, sorting host matrix
[OGL LOG] sort_host_mtx_sparsity_pattern : 70 ms
[OGL LOG] sort_host_mtx : 34 ms
[OGL LOG] init_preconditioner : 0 ms
[OGL LOG] solve : 2906 ms
BJompGKOBiCGStab:  Solving for p, Initial residual = 0.545474, Final residual = 9.52338e-05, No Iterations 270
linear solve p 3205
time step continuity errors : sum local = 5.36186e-07, global = 5.60216e-21, cumulative = -7.68925e-21
ExecutionTime = 854.66 s  ClockTime = 29 s

Time = 0.004

Courant Number mean: 0.0636678 max: 0.623539
nonePBiCGStab:  Solving for Ux, Initial residual = 0.03378, Final residual = 0.00420611, No Iterations 5
nonePBiCGStab:  Solving for Uy, Initial residual = 0.0903822, Final residual = 0.0131488, No Iterations 5
nonePBiCGStab:  Solving for Uz, Initial residual = 0.283883, Final residual = 0.0503108, No Iterations 5
linear solve U 167
[OGL LOG] init_host_sparsity_pattern : 93 ms
[OGL LOG] matrix not stored update host matrix
[OGL LOG] update_host_mtx : 50 ms
[OGL LOG] matrix is not yet sorted, sorting host matrix
[OGL LOG] sort_host_mtx_sparsity_pattern : 70 ms
[OGL LOG] sort_host_mtx : 34 ms
[OGL LOG] init_preconditioner : 0 ms
[OGL LOG] solve : 3116 ms
BJompGKOBiCGStab:  Solving for p, Initial residual = 0.435524, Final residual = 5.94062e-05, No Iterations 305
linear solve p 3409
time step continuity errors : sum local = 3.40978e-08, global = -4.36514e-21, cumulative = -1.20544e-20
[OGL LOG] init_host_sparsity_pattern : 106 ms
[OGL LOG] matrix not stored update host matrix
[OGL LOG] update_host_mtx : 50 ms
[OGL LOG] matrix is not yet sorted, sorting host matrix
[OGL LOG] sort_host_mtx_sparsity_pattern : 72 ms
[OGL LOG] sort_host_mtx : 35 ms
[OGL LOG] init_preconditioner : 0 ms
[OGL LOG] solve : 3414 ms
BJompGKOBiCGStab:  Solving for p, Initial residual = 0.363953, Final residual = 9.58399e-05, No Iterations 319
linear solve p 3724
time step continuity errors : sum local = 6.82006e-08, global = 5.78746e-21, cumulative = -6.26694e-21
ExecutionTime = 1116.79 s  ClockTime = 36 s

Time = 0.005

Courant Number mean: 0.0723085 max: 0.634565
nonePBiCGStab:  Solving for Ux, Initial residual = 0.024178, Final residual = 0.00258651, No Iterations 5
nonePBiCGStab:  Solving for Uy, Initial residual = 0.0583273, Final residual = 0.00743015, No Iterations 5
nonePBiCGStab:  Solving for Uz, Initial residual = 0.151044, Final residual = 0.0266595, No Iterations 5
linear solve U 168
[OGL LOG] init_host_sparsity_pattern : 92 ms
[OGL LOG] matrix not stored update host matrix
[OGL LOG] update_host_mtx : 50 ms
[OGL LOG] matrix is not yet sorted, sorting host matrix
[OGL LOG] sort_host_mtx_sparsity_pattern : 70 ms
[OGL LOG] sort_host_mtx : 34 ms
[OGL LOG] init_preconditioner : 0 ms
[OGL LOG] solve : 2837 ms
BJompGKOBiCGStab:  Solving for p, Initial residual = 0.386794, Final residual = 9.88203e-05, No Iterations 264
linear solve p 3133
time step continuity errors : sum local = 1.27912e-06, global = 1.9584e-20, cumulative = 1.33171e-20
[OGL LOG] init_host_sparsity_pattern : 94 ms
[OGL LOG] matrix not stored update host matrix
[OGL LOG] update_host_mtx : 50 ms
[OGL LOG] matrix is not yet sorted, sorting host matrix
[OGL LOG] sort_host_mtx_sparsity_pattern : 70 ms
[OGL LOG] sort_host_mtx : 34 ms
[OGL LOG] init_preconditioner : 0 ms
[OGL LOG] solve : 1470 ms
BJompGKOBiCGStab:  Solving for p, Initial residual = 0.332232, Final residual = 9.77712e-05, No Iterations 136
linear solve p 1762
time step continuity errors : sum local = 6.50497e-08, global = 1.43909e-20, cumulative = 2.7708e-20
ExecutionTime = 1290.3 s  ClockTime = 42 s

Time = 0.006

Courant Number mean: 0.0790811 max: 0.641331
nonePBiCGStab:  Solving for Ux, Initial residual = 0.0181164, Final residual = 0.00161683, No Iterations 5
nonePBiCGStab:  Solving for Uy, Initial residual = 0.0432914, Final residual = 0.00392462, No Iterations 5
nonePBiCGStab:  Solving for Uz, Initial residual = 0.12137, Final residual = 0.0217431, No Iterations 5
linear solve U 167
[OGL LOG] init_host_sparsity_pattern : 93 ms
[OGL LOG] matrix not stored update host matrix
[OGL LOG] update_host_mtx : 50 ms
[OGL LOG] matrix is not yet sorted, sorting host matrix
[OGL LOG] sort_host_mtx_sparsity_pattern : 70 ms
[OGL LOG] sort_host_mtx : 35 ms
[OGL LOG] init_preconditioner : 0 ms
[OGL LOG] solve : 3269 ms
BJompGKOBiCGStab:  Solving for p, Initial residual = 0.282792, Final residual = 9.31257e-05, No Iterations 303
linear solve p 3563
time step continuity errors : sum local = 6.31961e-08, global = -7.62413e-21, cumulative = 2.00839e-20
[OGL LOG] init_host_sparsity_pattern : 94 ms
[OGL LOG] matrix not stored update host matrix
[OGL LOG] update_host_mtx : 50 ms
[OGL LOG] matrix is not yet sorted, sorting host matrix
[OGL LOG] sort_host_mtx_sparsity_pattern : 72 ms
[OGL LOG] sort_host_mtx : 34 ms
[OGL LOG] init_preconditioner : 0 ms
[OGL LOG] solve : 3613 ms
BJompGKOBiCGStab:  Solving for p, Initial residual = 0.236473, Final residual = 4.85163e-05, No Iterations 336
linear solve p 3908
time step continuity errors : sum local = 7.12811e-07, global = -1.73854e-20, cumulative = 2.69843e-21
ExecutionTime = 1566.41 s  ClockTime = 49 s

Time = 0.007

Courant Number mean: 0.0847848 max: 0.645947
nonePBiCGStab:  Solving for Ux, Initial residual = 0.0140397, Final residual = 0.0010612, No Iterations 5
nonePBiCGStab:  Solving for Uy, Initial residual = 0.0341926, Final residual = 0.00277997, No Iterations 5
nonePBiCGStab:  Solving for Uz, Initial residual = 0.0863971, Final residual = 0.0144967, No Iterations 5
linear solve U 167
[OGL LOG] init_host_sparsity_pattern : 93 ms
[OGL LOG] matrix not stored update host matrix
[OGL LOG] update_host_mtx : 50 ms
[OGL LOG] matrix is not yet sorted, sorting host matrix
[OGL LOG] sort_host_mtx_sparsity_pattern : 70 ms
[OGL LOG] sort_host_mtx : 34 ms
[OGL LOG] init_preconditioner : 0 ms
[OGL LOG] solve : 3178 ms
BJompGKOBiCGStab:  Solving for p, Initial residual = 0.238988, Final residual = 9.77021e-05, No Iterations 300
linear solve p 3472
time step continuity errors : sum local = 4.95412e-08, global = -6.90745e-21, cumulative = -4.20902e-21
[OGL LOG] init_host_sparsity_pattern : 112 ms
[OGL LOG] matrix not stored update host matrix
[OGL LOG] update_host_mtx : 50 ms
[OGL LOG] matrix is not yet sorted, sorting host matrix
[OGL LOG] sort_host_mtx_sparsity_pattern : 70 ms
[OGL LOG] sort_host_mtx : 34 ms
[OGL LOG] init_preconditioner : 0 ms
[OGL LOG] solve : 2462 ms
BJompGKOBiCGStab:  Solving for p, Initial residual = 0.201353, Final residual = 9.91973e-05, No Iterations 229
linear solve p 2778
time step continuity errors : sum local = 1.2921e-07, global = 2.48493e-20, cumulative = 2.06403e-20
ExecutionTime = 1793.06 s  ClockTime = 56 s

Time = 0.008

Courant Number mean: 0.0895707 max: 0.649421
nonePBiCGStab:  Solving for Ux, Initial residual = 0.0118204, Final residual = 0.000824951, No Iterations 5
nonePBiCGStab:  Solving for Uy, Initial residual = 0.0271688, Final residual = 0.00178083, No Iterations 5
nonePBiCGStab:  Solving for Uz, Initial residual = 0.0830349, Final residual = 0.0150965, No Iterations 5
linear solve U 167
[OGL LOG] init_host_sparsity_pattern : 93 ms
[OGL LOG] matrix not stored update host matrix
[OGL LOG] update_host_mtx : 50 ms
[OGL LOG] matrix is not yet sorted, sorting host matrix
[OGL LOG] sort_host_mtx_sparsity_pattern : 70 ms
[OGL LOG] sort_host_mtx : 34 ms
[OGL LOG] init_preconditioner : 0 ms
[OGL LOG] solve : 3269 ms
BJompGKOBiCGStab:  Solving for p, Initial residual = 0.182504, Final residual = 3.12656e-05, No Iterations 305
linear solve p 3561
time step continuity errors : sum local = 1.50983e-08, global = -8.46264e-21, cumulative = 1.21777e-20
[OGL LOG] init_host_sparsity_pattern : 101 ms
[OGL LOG] matrix not stored update host matrix
[OGL LOG] update_host_mtx : 50 ms
[OGL LOG] matrix is not yet sorted, sorting host matrix
[OGL LOG] sort_host_mtx_sparsity_pattern : 70 ms
[OGL LOG] sort_host_mtx : 34 ms
[OGL LOG] init_preconditioner : 0 ms
[OGL LOG] solve : 3498 ms
BJompGKOBiCGStab:  Solving for p, Initial residual = 0.153194, Final residual = 3.9049e-05, No Iterations 326
linear solve p 3798
time step continuity errors : sum local = 1.4601e-07, global = -1.45319e-20, cumulative = -2.35427e-21
ExecutionTime = 2064.6 s  ClockTime = 64 s

Time = 0.009

Courant Number mean: 0.0937075 max: 0.652158
nonePBiCGStab:  Solving for Ux, Initial residual = 0.00973375, Final residual = 0.000589861, No Iterations 5
nonePBiCGStab:  Solving for Uy, Initial residual = 0.0231745, Final residual = 0.00131324, No Iterations 5
nonePBiCGStab:  Solving for Uz, Initial residual = 0.0649929, Final residual = 0.00833597, No Iterations 5
linear solve U 167
[OGL LOG] init_host_sparsity_pattern : 93 ms
[OGL LOG] matrix not stored update host matrix
[OGL LOG] update_host_mtx : 50 ms
[OGL LOG] matrix is not yet sorted, sorting host matrix
[OGL LOG] sort_host_mtx_sparsity_pattern : 69 ms
[OGL LOG] sort_host_mtx : 34 ms
[OGL LOG] init_preconditioner : 0 ms
[OGL LOG] solve : 2541 ms
BJompGKOBiCGStab:  Solving for p, Initial residual = 0.15218, Final residual = 9.94827e-05, No Iterations 236
linear solve p 2832
time step continuity errors : sum local = 3.68854e-07, global = -1.2232e-20, cumulative = -1.45863e-20
[OGL LOG] init_host_sparsity_pattern : 112 ms
[OGL LOG] matrix not stored update host matrix
[OGL LOG] update_host_mtx : 50 ms
[OGL LOG] matrix is not yet sorted, sorting host matrix
[OGL LOG] sort_host_mtx_sparsity_pattern : 69 ms
[OGL LOG] sort_host_mtx : 34 ms
[OGL LOG] init_preconditioner : 0 ms
[OGL LOG] solve : 1294 ms
BJompGKOBiCGStab:  Solving for p, Initial residual = 0.128485, Final residual = 8.97672e-05, No Iterations 120
linear solve p 1605
time step continuity errors : sum local = 5.0849e-08, global = -9.64207e-21, cumulative = -2.42284e-20
ExecutionTime = 2219.31 s  ClockTime = 69 s

Time = 0.01

Courant Number mean: 0.0972874 max: 0.654369
nonePBiCGStab:  Solving for Ux, Initial residual = 0.00825237, Final residual = 0.000527728, No Iterations 5
nonePBiCGStab:  Solving for Uy, Initial residual = 0.0192552, Final residual = 0.00111816, No Iterations 5
nonePBiCGStab:  Solving for Uz, Initial residual = 0.057804, Final residual = 0.010434, No Iterations 5
linear solve U 167
[OGL LOG] init_host_sparsity_pattern : 93 ms
[OGL LOG] matrix not stored update host matrix
[OGL LOG] update_host_mtx : 50 ms
[OGL LOG] matrix is not yet sorted, sorting host matrix
[OGL LOG] sort_host_mtx_sparsity_pattern : 70 ms
[OGL LOG] sort_host_mtx : 35 ms
[OGL LOG] init_preconditioner : 0 ms
[OGL LOG] solve : 3037 ms
BJompGKOBiCGStab:  Solving for p, Initial residual = 0.124283, Final residual = 9.91642e-05, No Iterations 283
linear solve p 3329
time step continuity errors : sum local = 4.36815e-08, global = 1.74003e-20, cumulative = -6.82808e-21
[OGL LOG] init_host_sparsity_pattern : 94 ms
[OGL LOG] matrix not stored update host matrix
[OGL LOG] update_host_mtx : 51 ms
[OGL LOG] matrix is not yet sorted, sorting host matrix
[OGL LOG] sort_host_mtx_sparsity_pattern : 69 ms
[OGL LOG] sort_host_mtx : 34 ms
[OGL LOG] init_preconditioner : 0 ms
[OGL LOG] solve : 2809 ms
BJompGKOBiCGStab:  Solving for p, Initial residual = 0.104738, Final residual = 8.66547e-05, No Iterations 262
linear solve p 3103
time step continuity errors : sum local = 4.40458e-08, global = -7.03986e-21, cumulative = -1.38679e-20
ExecutionTime = 2454.15 s  ClockTime = 75 s

End

