/*---------------------------------------------------------------------------*\
  =========                 |
  \\      /  F ield         | OpenFOAM: The Open Source CFD Toolbox
   \\    /   O peration     | Website:  https://openfoam.org
    \\  /    A nd           | Version:  8
     \\/     M anipulation  |
\*---------------------------------------------------------------------------*/
Build  : 8-14d69e1ee166
Exec   : icoFoam
Date   : Jul 29 2021
Time   : 09:18:15
Host   : "guyot.icl.utk.edu"
PID    : 238909
I/O    : uncollated
Case   : /home/greole/code/OBR/lidDrivenCavity3D/Variation_mesh/70/Variation_matrix_solver/CG_DIC_Serial/base
nProcs : 1
sigFpe : Enabling floating point exception trapping (FOAM_SIGFPE).
fileModificationChecking : Monitoring run-time modified files using timeStampMaster (fileModificationSkew 10)
allowSystemOperations : Allowing user-supplied system call operations

// * * * * * * * * * * * * * * * * * * * * * * * * * * * * * * * * * * * * * //
Create time

Create mesh for time = 0

Reading transportProperties

Reading field p

Reading field U

Reading/calculating face flux field phi


Starting time loop

Time = 0.001

Courant Number mean: 0 max: 0
DILUPBiCGStab:  Solving for Ux, Initial residual = 1, Final residual = 0.00143011, No Iterations 5
DILUPBiCGStab:  Solving for Uy:  solution singularity
DILUPBiCGStab:  Solving for Uz:  solution singularity
linear solve U 130955
DICPCG:  Solving for p, Initial residual = 1, Final residual = 9.21583e-05, No Iterations 176
linear solve p 1175714
time step continuity errors : sum local = 5.42032e-08, global = 1.32718e-21, cumulative = 1.32718e-21
DICPCG:  Solving for p, Initial residual = 0.72382, Final residual = 8.88566e-05, No Iterations 174
linear solve p 1185902
time step continuity errors : sum local = 6.94725e-08, global = 2.14428e-21, cumulative = 3.47146e-21
ExecutionTime = 4.09 s  ClockTime = 4 s

Time = 0.002

Courant Number mean: 0.0394021 max: 0.518352
DILUPBiCGStab:  Solving for Ux, Initial residual = 0.15129, Final residual = 0.000459807, No Iterations 5
DILUPBiCGStab:  Solving for Uy, Initial residual = 0.361767, Final residual = 0.000929259, No Iterations 5
DILUPBiCGStab:  Solving for Uz, Initial residual = 0.984717, Final residual = 0.00303041, No Iterations 5
linear solve U 254243
DICPCG:  Solving for p, Initial residual = 0.67421, Final residual = 9.21437e-05, No Iterations 169
linear solve p 1113204
time step continuity errors : sum local = 7.88432e-08, global = 1.80558e-20, cumulative = 2.15273e-20
DICPCG:  Solving for p, Initial residual = 0.601538, Final residual = 9.1729e-05, No Iterations 165
linear solve p 1131186
time step continuity errors : sum local = 8.02707e-08, global = 7.51243e-21, cumulative = 2.90397e-20
ExecutionTime = 6.73 s  ClockTime = 6 s

Time = 0.003

Courant Number mean: 0.0591359 max: 0.616285
DILUPBiCGStab:  Solving for Ux, Initial residual = 0.0520839, Final residual = 0.00010812, No Iterations 5
DILUPBiCGStab:  Solving for Uy, Initial residual = 0.118677, Final residual = 0.000223815, No Iterations 5
DILUPBiCGStab:  Solving for Uz, Initial residual = 0.504288, Final residual = 0.00145355, No Iterations 5
linear solve U 257151
DICPCG:  Solving for p, Initial residual = 0.609191, Final residual = 8.69508e-05, No Iterations 170
linear solve p 1161431
time step continuity errors : sum local = 5.33055e-08, global = -4.33736e-21, cumulative = 2.47024e-20
DICPCG:  Solving for p, Initial residual = 0.557306, Final residual = 9.51703e-05, No Iterations 169
linear solve p 1143773
time step continuity errors : sum local = 5.66476e-08, global = -1.00463e-20, cumulative = 1.46561e-20
ExecutionTime = 9.43 s  ClockTime = 9 s

Time = 0.004

Courant Number mean: 0.0695969 max: 0.629491
DILUPBiCGStab:  Solving for Ux, Initial residual = 0.0286855, Final residual = 5.77629e-05, No Iterations 5
DILUPBiCGStab:  Solving for Uy, Initial residual = 0.0790556, Final residual = 0.000132077, No Iterations 5
DILUPBiCGStab:  Solving for Uz, Initial residual = 0.261841, Final residual = 0.000581703, No Iterations 5
linear solve U 256370
DICPCG:  Solving for p, Initial residual = 0.385919, Final residual = 9.71289e-05, No Iterations 158
linear solve p 1081071
time step continuity errors : sum local = 5.17973e-08, global = -1.19181e-20, cumulative = 2.73801e-21
DICPCG:  Solving for p, Initial residual = 0.325604, Final residual = 9.97795e-05, No Iterations 157
linear solve p 1064241
time step continuity errors : sum local = 5.38701e-08, global = -7.2459e-21, cumulative = -4.50789e-21
ExecutionTime = 11.97 s  ClockTime = 11 s

Time = 0.005

Courant Number mean: 0.0778345 max: 0.639336
DILUPBiCGStab:  Solving for Ux, Initial residual = 0.0206093, Final residual = 3.13974e-05, No Iterations 5
DILUPBiCGStab:  Solving for Uy, Initial residual = 0.0456729, Final residual = 6.10513e-05, No Iterations 5
DILUPBiCGStab:  Solving for Uz, Initial residual = 0.0901627, Final residual = 0.000191309, No Iterations 5
linear solve U 256393
DICPCG:  Solving for p, Initial residual = 0.289551, Final residual = 9.81081e-05, No Iterations 83
linear solve p 572958
time step continuity errors : sum local = 5.39273e-08, global = -3.92733e-21, cumulative = -8.43522e-21
DICPCG:  Solving for p, Initial residual = 0.247316, Final residual = 8.91084e-05, No Iterations 79
linear solve p 540225
time step continuity errors : sum local = 4.24001e-08, global = 1.2774e-20, cumulative = 4.33875e-21
ExecutionTime = 13.48 s  ClockTime = 13 s

Time = 0.006

Courant Number mean: 0.0841384 max: 0.645079
DILUPBiCGStab:  Solving for Ux, Initial residual = 0.0148836, Final residual = 2.19561e-05, No Iterations 5
DILUPBiCGStab:  Solving for Uy, Initial residual = 0.0355016, Final residual = 3.66684e-05, No Iterations 5
DILUPBiCGStab:  Solving for Uz, Initial residual = 0.0802455, Final residual = 0.000157798, No Iterations 5
linear solve U 257163
DICPCG:  Solving for p, Initial residual = 0.177548, Final residual = 8.77395e-05, No Iterations 77
linear solve p 532340
time step continuity errors : sum local = 3.89701e-08, global = -5.73543e-21, cumulative = -1.39668e-21
DICPCG:  Solving for p, Initial residual = 0.14687, Final residual = 9.23214e-05, No Iterations 76
linear solve p 520541
time step continuity errors : sum local = 4.03718e-08, global = -1.10988e-20, cumulative = -1.24955e-20
ExecutionTime = 14.94 s  ClockTime = 14 s

Time = 0.007

Courant Number mean: 0.0893565 max: 0.648974
DILUPBiCGStab:  Solving for Ux, Initial residual = 0.0118943, Final residual = 1.23622e-05, No Iterations 5
DILUPBiCGStab:  Solving for Uy, Initial residual = 0.0272182, Final residual = 2.86951e-05, No Iterations 5
DILUPBiCGStab:  Solving for Uz, Initial residual = 0.050507, Final residual = 7.82485e-05, No Iterations 5
linear solve U 257269
DICPCG:  Solving for p, Initial residual = 0.124062, Final residual = 7.21918e-05, No Iterations 156
linear solve p 1067435
time step continuity errors : sum local = 2.99406e-08, global = -2.69414e-21, cumulative = -1.51896e-20
DICPCG:  Solving for p, Initial residual = 0.10355, Final residual = 9.27065e-05, No Iterations 155
linear solve p 1050591
time step continuity errors : sum local = 3.84273e-08, global = 5.30949e-21, cumulative = -9.88015e-21
ExecutionTime = 17.45 s  ClockTime = 17 s

Time = 0.008

Courant Number mean: 0.0937059 max: 0.652005
DILUPBiCGStab:  Solving for Ux, Initial residual = 0.00969557, Final residual = 1.00873e-05, No Iterations 5
DILUPBiCGStab:  Solving for Uy, Initial residual = 0.0223479, Final residual = 1.31965e-05, No Iterations 5
DILUPBiCGStab:  Solving for Uz, Initial residual = 0.0440145, Final residual = 5.63407e-05, No Iterations 5
linear solve U 257073
DICPCG:  Solving for p, Initial residual = 0.0802824, Final residual = 8.64496e-05, No Iterations 72
linear solve p 497682
time step continuity errors : sum local = 3.76459e-08, global = 2.91955e-20, cumulative = 1.93153e-20
DICPCG:  Solving for p, Initial residual = 0.066266, Final residual = 9.11326e-05, No Iterations 71
linear solve p 487502
time step continuity errors : sum local = 3.7783e-08, global = 7.20249e-21, cumulative = 2.65178e-20
ExecutionTime = 18.83 s  ClockTime = 18 s

Time = 0.009

Courant Number mean: 0.0974483 max: 0.654263
DILUPBiCGStab:  Solving for Ux, Initial residual = 0.00810366, Final residual = 5.402e-06, No Iterations 5
DILUPBiCGStab:  Solving for Uy, Initial residual = 0.0188362, Final residual = 1.31346e-05, No Iterations 5
DILUPBiCGStab:  Solving for Uz, Initial residual = 0.0356806, Final residual = 4.14031e-05, No Iterations 5
linear solve U 257163
DICPCG:  Solving for p, Initial residual = 0.0582341, Final residual = 9.52109e-05, No Iterations 70
linear solve p 484692
time step continuity errors : sum local = 4.07384e-08, global = -7.09396e-21, cumulative = 1.94238e-20
DICPCG:  Solving for p, Initial residual = 0.048592, Final residual = 8.32531e-05, No Iterations 70
linear solve p 479511
time step continuity errors : sum local = 3.42592e-08, global = 6.49171e-21, cumulative = 2.59155e-20
ExecutionTime = 20.2 s  ClockTime = 20 s

Time = 0.01

Courant Number mean: 0.100691 max: 0.656136
DILUPBiCGStab:  Solving for Ux, Initial residual = 0.00694095, Final residual = 4.36047e-06, No Iterations 5
DILUPBiCGStab:  Solving for Uy, Initial residual = 0.0161029, Final residual = 6.80763e-06, No Iterations 5
DILUPBiCGStab:  Solving for Uz, Initial residual = 0.0311173, Final residual = 2.93247e-05, No Iterations 5
linear solve U 257342
DICPCG:  Solving for p, Initial residual = 0.0393732, Final residual = 9.92503e-05, No Iterations 68
linear solve p 472031
time step continuity errors : sum local = 4.14753e-08, global = 8.42854e-21, cumulative = 3.43441e-20
DICPCG:  Solving for p, Initial residual = 0.0331786, Final residual = 9.08158e-05, No Iterations 68
linear solve p 466065
time step continuity errors : sum local = 3.70284e-08, global = -1.14786e-20, cumulative = 2.28654e-20
ExecutionTime = 21.53 s  ClockTime = 21 s

End

