/*---------------------------------------------------------------------------*\
  =========                 |
  \\      /  F ield         | OpenFOAM: The Open Source CFD Toolbox
   \\    /   O peration     | Website:  https://openfoam.org
    \\  /    A nd           | Version:  8
     \\/     M anipulation  |
\*---------------------------------------------------------------------------*/
Build  : 8-ef60d22ea792
Exec   : icoFoam
Date   : Jul 29 2021
Time   : 00:45:18
Host   : "uc2n414.localdomain"
PID    : 2841540
I/O    : uncollated
Case   : /pfs/data5/home/kit/scc/nq7776/code/OBR/lidDrivenCavity3D/Variation_mesh/65/Variation_matrix_solver/CG_NoPrecond_OMP/base
nProcs : 1
sigFpe : Enabling floating point exception trapping (FOAM_SIGFPE).
fileModificationChecking : Monitoring run-time modified files using timeStampMaster (fileModificationSkew 10)
allowSystemOperations : Allowing user-supplied system call operations

// * * * * * * * * * * * * * * * * * * * * * * * * * * * * * * * * * * * * * //
Create time

Create mesh for time = 0

Reading transportProperties

Reading field p

Reading field U

Reading/calculating face flux field phi


Starting time loop

Time = 0.001

Courant Number mean: 0 max: 0
DILUPBiCGStab:  Solving for Ux, Initial residual = 1, Final residual = 0.0009093, No Iterations 5
DILUPBiCGStab:  Solving for Uy:  solution singularity
DILUPBiCGStab:  Solving for Uz:  solution singularity
linear solve U 131685
[OGL LOG] init_host_sparsity_pattern : 78 ms
[OGL LOG] matrix not stored update host matrix
[OGL LOG] update_host_mtx : 40 ms
[OGL LOG] matrix is not yet sorted, compute sorting idxs
[OGL LOG] compute_sort : 2385 ms
[OGL LOG] matrix is not yet sorted, sorting host matrix
[OGL LOG] sort_host_mtx_sparsity_pattern : 56 ms
[OGL LOG] sort_host_mtx : 33 ms
[OGL LOG] init_preconditioner : 0 ms
[OGL LOG] solve : 3886 ms
noneompGKOCG:  Solving for p, Initial residual = 1, Final residual = 9.41541e-05, No Iterations 509
linear solve p 6548897
time step continuity errors : sum local = 5.53173e-08, global = 8.31168e-21, cumulative = 8.31168e-21
[OGL LOG] init_host_sparsity_pattern : 78 ms
[OGL LOG] matrix not stored update host matrix
[OGL LOG] update_host_mtx : 40 ms
[OGL LOG] matrix is not yet sorted, sorting host matrix
[OGL LOG] sort_host_mtx_sparsity_pattern : 56 ms
[OGL LOG] sort_host_mtx : 28 ms
[OGL LOG] init_preconditioner : 0 ms
[OGL LOG] solve : 3829 ms
noneompGKOCG:  Solving for p, Initial residual = 0.710529, Final residual = 9.93966e-05, No Iterations 502
linear solve p 4068167
time step continuity errors : sum local = 7.86288e-08, global = 1.45778e-22, cumulative = 8.45746e-21
ExecutionTime = 12 s  ClockTime = 12 s

Time = 0.002

Courant Number mean: 0.036459 max: 0.470838
DILUPBiCGStab:  Solving for Ux, Initial residual = 0.154387, Final residual = 0.000271567, No Iterations 5
DILUPBiCGStab:  Solving for Uy, Initial residual = 0.350436, Final residual = 0.000506098, No Iterations 5
DILUPBiCGStab:  Solving for Uz, Initial residual = 0.982773, Final residual = 0.0017687, No Iterations 5
linear solve U 239969
[OGL LOG] init_host_sparsity_pattern : 78 ms
[OGL LOG] matrix not stored update host matrix
[OGL LOG] update_host_mtx : 40 ms
[OGL LOG] matrix is not yet sorted, sorting host matrix
[OGL LOG] sort_host_mtx_sparsity_pattern : 57 ms
[OGL LOG] sort_host_mtx : 29 ms
[OGL LOG] init_preconditioner : 0 ms
[OGL LOG] solve : 3802 ms
noneompGKOCG:  Solving for p, Initial residual = 0.645966, Final residual = 9.39661e-05, No Iterations 499
linear solve p 4042873
time step continuity errors : sum local = 7.8738e-08, global = 4.72152e-21, cumulative = 1.3179e-20
[OGL LOG] init_host_sparsity_pattern : 75 ms
[OGL LOG] matrix not stored update host matrix
[OGL LOG] update_host_mtx : 40 ms
[OGL LOG] matrix is not yet sorted, sorting host matrix
[OGL LOG] sort_host_mtx_sparsity_pattern : 56 ms
[OGL LOG] sort_host_mtx : 27 ms
[OGL LOG] init_preconditioner : 0 ms
[OGL LOG] solve : 3785 ms
noneompGKOCG:  Solving for p, Initial residual = 0.569399, Final residual = 9.9017e-05, No Iterations 497
linear solve p 4018981
time step continuity errors : sum local = 8.50039e-08, global = -3.02128e-20, cumulative = -1.70338e-20
ExecutionTime = 20.43 s  ClockTime = 20 s

Time = 0.003

Courant Number mean: 0.0547095 max: 0.564536
DILUPBiCGStab:  Solving for Ux, Initial residual = 0.050613, Final residual = 5.48088e-05, No Iterations 5
DILUPBiCGStab:  Solving for Uy, Initial residual = 0.109592, Final residual = 0.000120717, No Iterations 5
DILUPBiCGStab:  Solving for Uz, Initial residual = 0.389112, Final residual = 0.000649717, No Iterations 5
linear solve U 237123
[OGL LOG] init_host_sparsity_pattern : 72 ms
[OGL LOG] matrix not stored update host matrix
[OGL LOG] update_host_mtx : 37 ms
[OGL LOG] matrix is not yet sorted, sorting host matrix
[OGL LOG] sort_host_mtx_sparsity_pattern : 56 ms
[OGL LOG] sort_host_mtx : 28 ms
[OGL LOG] init_preconditioner : 0 ms
[OGL LOG] solve : 3773 ms
noneompGKOCG:  Solving for p, Initial residual = 0.547717, Final residual = 9.37258e-05, No Iterations 495
linear solve p 4004178
time step continuity errors : sum local = 5.48893e-08, global = 1.73945e-20, cumulative = 3.60665e-22
[OGL LOG] init_host_sparsity_pattern : 75 ms
[OGL LOG] matrix not stored update host matrix
[OGL LOG] update_host_mtx : 40 ms
[OGL LOG] matrix is not yet sorted, sorting host matrix
[OGL LOG] sort_host_mtx_sparsity_pattern : 57 ms
[OGL LOG] sort_host_mtx : 27 ms
[OGL LOG] init_preconditioner : 0 ms
[OGL LOG] solve : 3770 ms
noneompGKOCG:  Solving for p, Initial residual = 0.491464, Final residual = 8.9665e-05, No Iterations 494
linear solve p 4006227
time step continuity errors : sum local = 5.1017e-08, global = -4.47444e-21, cumulative = -4.11378e-21
ExecutionTime = 28.81 s  ClockTime = 29 s

Time = 0.004

Courant Number mean: 0.0645905 max: 0.579606
DILUPBiCGStab:  Solving for Ux, Initial residual = 0.0290686, Final residual = 3.32268e-05, No Iterations 5
DILUPBiCGStab:  Solving for Uy, Initial residual = 0.0718691, Final residual = 5.55056e-05, No Iterations 5
DILUPBiCGStab:  Solving for Uz, Initial residual = 0.208761, Final residual = 0.000261438, No Iterations 5
linear solve U 239563
[OGL LOG] init_host_sparsity_pattern : 72 ms
[OGL LOG] matrix not stored update host matrix
[OGL LOG] update_host_mtx : 38 ms
[OGL LOG] matrix is not yet sorted, sorting host matrix
[OGL LOG] sort_host_mtx_sparsity_pattern : 56 ms
[OGL LOG] sort_host_mtx : 27 ms
[OGL LOG] init_preconditioner : 0 ms
[OGL LOG] solve : 3695 ms
noneompGKOCG:  Solving for p, Initial residual = 0.31668, Final residual = 9.35704e-05, No Iterations 484
linear solve p 3924533
time step continuity errors : sum local = 4.86737e-08, global = -1.15508e-20, cumulative = -1.56646e-20
[OGL LOG] init_host_sparsity_pattern : 75 ms
[OGL LOG] matrix not stored update host matrix
[OGL LOG] update_host_mtx : 40 ms
[OGL LOG] matrix is not yet sorted, sorting host matrix
[OGL LOG] sort_host_mtx_sparsity_pattern : 56 ms
[OGL LOG] sort_host_mtx : 27 ms
[OGL LOG] init_preconditioner : 0 ms
[OGL LOG] solve : 3658 ms
noneompGKOCG:  Solving for p, Initial residual = 0.261918, Final residual = 9.26446e-05, No Iterations 481
linear solve p 3891900
time step continuity errors : sum local = 4.87802e-08, global = 1.77948e-20, cumulative = 2.13019e-21
ExecutionTime = 36.99 s  ClockTime = 37 s

Time = 0.005

Courant Number mean: 0.0722267 max: 0.589261
DILUPBiCGStab:  Solving for Ux, Initial residual = 0.0206402, Final residual = 1.46579e-05, No Iterations 5
DILUPBiCGStab:  Solving for Uy, Initial residual = 0.04455, Final residual = 3.50822e-05, No Iterations 5
DILUPBiCGStab:  Solving for Uz, Initial residual = 0.0745729, Final residual = 7.5558e-05, No Iterations 5
linear solve U 237739
[OGL LOG] init_host_sparsity_pattern : 72 ms
[OGL LOG] matrix not stored update host matrix
[OGL LOG] update_host_mtx : 37 ms
[OGL LOG] matrix is not yet sorted, sorting host matrix
[OGL LOG] sort_host_mtx_sparsity_pattern : 56 ms
[OGL LOG] sort_host_mtx : 27 ms
[OGL LOG] init_preconditioner : 0 ms
[OGL LOG] solve : 3508 ms
noneompGKOCG:  Solving for p, Initial residual = 0.213989, Final residual = 9.92546e-05, No Iterations 460
linear solve p 3737204
time step continuity errors : sum local = 4.52137e-08, global = -6.88473e-22, cumulative = 1.44172e-21
[OGL LOG] init_host_sparsity_pattern : 75 ms
[OGL LOG] matrix not stored update host matrix
[OGL LOG] update_host_mtx : 40 ms
[OGL LOG] matrix is not yet sorted, sorting host matrix
[OGL LOG] sort_host_mtx_sparsity_pattern : 56 ms
[OGL LOG] sort_host_mtx : 27 ms
[OGL LOG] init_preconditioner : 0 ms
[OGL LOG] solve : 3491 ms
noneompGKOCG:  Solving for p, Initial residual = 0.179756, Final residual = 9.92339e-05, No Iterations 458
linear solve p 3724458
time step continuity errors : sum local = 4.49421e-08, global = -4.92658e-21, cumulative = -3.48486e-21
ExecutionTime = 44.82 s  ClockTime = 45 s

Time = 0.006

Courant Number mean: 0.0781056 max: 0.595023
DILUPBiCGStab:  Solving for Ux, Initial residual = 0.0153439, Final residual = 1.31839e-05, No Iterations 5
DILUPBiCGStab:  Solving for Uy, Initial residual = 0.0341656, Final residual = 1.47458e-05, No Iterations 5
DILUPBiCGStab:  Solving for Uz, Initial residual = 0.0671506, Final residual = 6.50563e-05, No Iterations 5
linear solve U 239290
[OGL LOG] init_host_sparsity_pattern : 72 ms
[OGL LOG] matrix not stored update host matrix
[OGL LOG] update_host_mtx : 38 ms
[OGL LOG] matrix is not yet sorted, sorting host matrix
[OGL LOG] sort_host_mtx_sparsity_pattern : 56 ms
[OGL LOG] sort_host_mtx : 27 ms
[OGL LOG] init_preconditioner : 0 ms
[OGL LOG] solve : 1698 ms
noneompGKOCG:  Solving for p, Initial residual = 0.126602, Final residual = 9.7693e-05, No Iterations 223
linear solve p 1927804
time step continuity errors : sum local = 5.20346e-08, global = -9.20784e-22, cumulative = -4.40565e-21
[OGL LOG] init_host_sparsity_pattern : 75 ms
[OGL LOG] matrix not stored update host matrix
[OGL LOG] update_host_mtx : 40 ms
[OGL LOG] matrix is not yet sorted, sorting host matrix
[OGL LOG] sort_host_mtx_sparsity_pattern : 56 ms
[OGL LOG] sort_host_mtx : 27 ms
[OGL LOG] init_preconditioner : 0 ms
[OGL LOG] solve : 1660 ms
noneompGKOCG:  Solving for p, Initial residual = 0.103681, Final residual = 9.81538e-05, No Iterations 217
linear solve p 1894003
time step continuity errors : sum local = 4.64948e-08, global = 9.99509e-21, cumulative = 5.58944e-21
ExecutionTime = 49.03 s  ClockTime = 49 s

Time = 0.007

Courant Number mean: 0.0829416 max: 0.598973
DILUPBiCGStab:  Solving for Ux, Initial residual = 0.0121949, Final residual = 5.65138e-06, No Iterations 5
DILUPBiCGStab:  Solving for Uy, Initial residual = 0.0270208, Final residual = 1.49271e-05, No Iterations 5
DILUPBiCGStab:  Solving for Uz, Initial residual = 0.0486858, Final residual = 4.0963e-05, No Iterations 5
linear solve U 237335
[OGL LOG] init_host_sparsity_pattern : 72 ms
[OGL LOG] matrix not stored update host matrix
[OGL LOG] update_host_mtx : 38 ms
[OGL LOG] matrix is not yet sorted, sorting host matrix
[OGL LOG] sort_host_mtx_sparsity_pattern : 56 ms
[OGL LOG] sort_host_mtx : 27 ms
[OGL LOG] init_preconditioner : 0 ms
[OGL LOG] solve : 1618 ms
noneompGKOCG:  Solving for p, Initial residual = 0.0845381, Final residual = 9.79367e-05, No Iterations 212
linear solve p 1847962
time step continuity errors : sum local = 4.31275e-08, global = -7.01931e-22, cumulative = 4.88751e-21
[OGL LOG] init_host_sparsity_pattern : 75 ms
[OGL LOG] matrix not stored update host matrix
[OGL LOG] update_host_mtx : 40 ms
[OGL LOG] matrix is not yet sorted, sorting host matrix
[OGL LOG] sort_host_mtx_sparsity_pattern : 56 ms
[OGL LOG] sort_host_mtx : 27 ms
[OGL LOG] init_preconditioner : 0 ms
[OGL LOG] solve : 1612 ms
noneompGKOCG:  Solving for p, Initial residual = 0.0700083, Final residual = 9.64868e-05, No Iterations 210
linear solve p 1846098
time step continuity errors : sum local = 4.24036e-08, global = -1.12974e-20, cumulative = -6.40985e-21
ExecutionTime = 53.1 s  ClockTime = 53 s

Time = 0.008

Courant Number mean: 0.0869902 max: 0.601971
DILUPBiCGStab:  Solving for Ux, Initial residual = 0.0100251, Final residual = 4.75427e-06, No Iterations 5
DILUPBiCGStab:  Solving for Uy, Initial residual = 0.0221927, Final residual = 6.29454e-06, No Iterations 5
DILUPBiCGStab:  Solving for Uz, Initial residual = 0.0417542, Final residual = 2.72265e-05, No Iterations 5
linear solve U 237343
[OGL LOG] init_host_sparsity_pattern : 72 ms
[OGL LOG] matrix not stored update host matrix
[OGL LOG] update_host_mtx : 38 ms
[OGL LOG] matrix is not yet sorted, sorting host matrix
[OGL LOG] sort_host_mtx_sparsity_pattern : 56 ms
[OGL LOG] sort_host_mtx : 27 ms
[OGL LOG] init_preconditioner : 0 ms
[OGL LOG] solve : 1661 ms
noneompGKOCG:  Solving for p, Initial residual = 0.0542303, Final residual = 9.60738e-05, No Iterations 217
linear solve p 1890481
time step continuity errors : sum local = 4.94254e-08, global = -9.11854e-21, cumulative = -1.55284e-20
[OGL LOG] init_host_sparsity_pattern : 75 ms
[OGL LOG] matrix not stored update host matrix
[OGL LOG] update_host_mtx : 40 ms
[OGL LOG] matrix is not yet sorted, sorting host matrix
[OGL LOG] sort_host_mtx_sparsity_pattern : 56 ms
[OGL LOG] sort_host_mtx : 27 ms
[OGL LOG] init_preconditioner : 0 ms
[OGL LOG] solve : 1570 ms
noneompGKOCG:  Solving for p, Initial residual = 0.0450412, Final residual = 9.69445e-05, No Iterations 206
linear solve p 1804290
time step continuity errors : sum local = 4.47307e-08, global = 3.20903e-21, cumulative = -1.23193e-20
ExecutionTime = 57.17 s  ClockTime = 57 s

Time = 0.009

Courant Number mean: 0.0904653 max: 0.604263
DILUPBiCGStab:  Solving for Ux, Initial residual = 0.00840366, Final residual = 2.59066e-06, No Iterations 5
DILUPBiCGStab:  Solving for Uy, Initial residual = 0.0188045, Final residual = 6.39672e-06, No Iterations 5
DILUPBiCGStab:  Solving for Uz, Initial residual = 0.0357978, Final residual = 2.15337e-05, No Iterations 5
linear solve U 237712
[OGL LOG] init_host_sparsity_pattern : 72 ms
[OGL LOG] matrix not stored update host matrix
[OGL LOG] update_host_mtx : 38 ms
[OGL LOG] matrix is not yet sorted, sorting host matrix
[OGL LOG] sort_host_mtx_sparsity_pattern : 56 ms
[OGL LOG] sort_host_mtx : 27 ms
[OGL LOG] init_preconditioner : 0 ms
[OGL LOG] solve : 1564 ms
noneompGKOCG:  Solving for p, Initial residual = 0.0386328, Final residual = 9.85429e-05, No Iterations 205
linear solve p 1793589
time step continuity errors : sum local = 4.28516e-08, global = -9.35113e-21, cumulative = -2.16705e-20
[OGL LOG] init_host_sparsity_pattern : 75 ms
[OGL LOG] matrix not stored update host matrix
[OGL LOG] update_host_mtx : 40 ms
[OGL LOG] matrix is not yet sorted, sorting host matrix
[OGL LOG] sort_host_mtx_sparsity_pattern : 56 ms
[OGL LOG] sort_host_mtx : 27 ms
[OGL LOG] init_preconditioner : 0 ms
[OGL LOG] solve : 1585 ms
noneompGKOCG:  Solving for p, Initial residual = 0.0326063, Final residual = 9.87049e-05, No Iterations 202
linear solve p 1820923
time step continuity errors : sum local = 4.26963e-08, global = 5.35847e-21, cumulative = -1.6312e-20
ExecutionTime = 61.18 s  ClockTime = 61 s

Time = 0.01

Courant Number mean: 0.0934677 max: 0.606123
DILUPBiCGStab:  Solving for Ux, Initial residual = 0.0072078, Final residual = 2.06836e-06, No Iterations 5
DILUPBiCGStab:  Solving for Uy, Initial residual = 0.016101, Final residual = 2.54442e-06, No Iterations 5
DILUPBiCGStab:  Solving for Uz, Initial residual = 0.03119, Final residual = 1.54748e-05, No Iterations 5
linear solve U 282245
[OGL LOG] init_host_sparsity_pattern : 78 ms
[OGL LOG] matrix not stored update host matrix
[OGL LOG] update_host_mtx : 41 ms
[OGL LOG] matrix is not yet sorted, sorting host matrix
[OGL LOG] sort_host_mtx_sparsity_pattern : 61 ms
[OGL LOG] sort_host_mtx : 30 ms
[OGL LOG] init_preconditioner : 0 ms
[OGL LOG] solve : 1784 ms
noneompGKOCG:  Solving for p, Initial residual = 0.027193, Final residual = 9.90464e-05, No Iterations 218
linear solve p 2036114
time step continuity errors : sum local = 5.10262e-08, global = 3.99729e-23, cumulative = -1.6272e-20
[OGL LOG] init_host_sparsity_pattern : 81 ms
[OGL LOG] matrix not stored update host matrix
[OGL LOG] update_host_mtx : 44 ms
[OGL LOG] matrix is not yet sorted, sorting host matrix
[OGL LOG] sort_host_mtx_sparsity_pattern : 60 ms
[OGL LOG] sort_host_mtx : 30 ms
[OGL LOG] init_preconditioner : 0 ms
[OGL LOG] solve : 1601 ms
noneompGKOCG:  Solving for p, Initial residual = 0.0233837, Final residual = 9.46159e-05, No Iterations 200
linear solve p 1860629
time step continuity errors : sum local = 4.38902e-08, global = 1.64916e-20, cumulative = 2.19592e-22
ExecutionTime = 65.55 s  ClockTime = 66 s

End

