/*---------------------------------------------------------------------------*\
  =========                 |
  \\      /  F ield         | OpenFOAM: The Open Source CFD Toolbox
   \\    /   O peration     | Website:  https://openfoam.org
    \\  /    A nd           | Version:  8
     \\/     M anipulation  |
\*---------------------------------------------------------------------------*/
Build  : 8-40a5a48f630f
Exec   : icoFoam
Date   : Jul 28 2021
Time   : 11:52:23
Host   : "uc2n421.localdomain"
PID    : 3706860
I/O    : uncollated
Case   : /pfs/data5/home/kit/scc/nq7776/code/OBR/lidDrivenCavity3D/Variation_mesh/90/Variation_matrix_solver/CG_NoPrecond_OMP/base
nProcs : 1
sigFpe : Enabling floating point exception trapping (FOAM_SIGFPE).
fileModificationChecking : Monitoring run-time modified files using timeStampMaster (fileModificationSkew 10)
allowSystemOperations : Allowing user-supplied system call operations

// * * * * * * * * * * * * * * * * * * * * * * * * * * * * * * * * * * * * * //
Create time

Create mesh for time = 0

Reading transportProperties

Reading field p

Reading field U

Reading/calculating face flux field phi


Starting time loop

Time = 0.001

Courant Number mean: 0 max: 0
nonePBiCGStab:  Solving for Ux, Initial residual = 1, Final residual = 0.0756268, No Iterations 5
nonePBiCGStab:  Solving for Uy, Initial residual = 0, Final residual = 0, No Iterations 0
nonePBiCGStab:  Solving for Uz, Initial residual = 0, Final residual = 0, No Iterations 0
linear solve U 194
[OGL LOG] init_host_sparsity_pattern : 224 ms
[OGL LOG] matrix not stored update host matrix
[OGL LOG] update_host_mtx : 116 ms
[OGL LOG] matrix is not yet sorted, compute sorting idxs
[OGL LOG] compute_sort : 7074 ms
[OGL LOG] matrix is not yet sorted, sorting host matrix
[OGL LOG] sort_host_mtx_sparsity_pattern : 162 ms
[OGL LOG] sort_host_mtx : 95 ms
[OGL LOG] init_preconditioner : 0 ms
[OGL LOG] solve : 5602 ms
noneompGKOCG:  Solving for p, Initial residual = 1, Final residual = 9.85989e-05, No Iterations 713
linear solve p 13456
time step continuity errors : sum local = 4.00104e-08, global = -9.40334e-21, cumulative = -9.40334e-21
[OGL LOG] init_host_sparsity_pattern : 218 ms
[OGL LOG] matrix not stored update host matrix
[OGL LOG] update_host_mtx : 116 ms
[OGL LOG] matrix is not yet sorted, sorting host matrix
[OGL LOG] sort_host_mtx_sparsity_pattern : 191 ms
[OGL LOG] sort_host_mtx : 96 ms
[OGL LOG] init_preconditioner : 0 ms
[OGL LOG] solve : 5517 ms
noneompGKOCG:  Solving for p, Initial residual = 0.70133, Final residual = 9.44561e-05, No Iterations 703
linear solve p 6303
time step continuity errors : sum local = 5.33314e-08, global = -6.01165e-21, cumulative = -1.5415e-20
ExecutionTime = 189.46 s  ClockTime = 23 s

End

