/*---------------------------------------------------------------------------*\
  =========                 |
  \\      /  F ield         | OpenFOAM: The Open Source CFD Toolbox
   \\    /   O peration     | Website:  https://openfoam.org
    \\  /    A nd           | Version:  8
     \\/     M anipulation  |
\*---------------------------------------------------------------------------*/
Build  : 8-ef60d22ea792
Exec   : icoFoam
Date   : Jul 28 2021
Time   : 22:08:55
Host   : "uc2n535.localdomain"
PID    : 247771
I/O    : uncollated
Case   : /pfs/data5/home/kit/scc/nq7776/code/OBR/lidDrivenCavity3D/Variation_mesh/5/Variation_matrix_solver/BiCGStab_BJ_OMP/base
nProcs : 1
sigFpe : Enabling floating point exception trapping (FOAM_SIGFPE).
fileModificationChecking : Monitoring run-time modified files using timeStampMaster (fileModificationSkew 10)
allowSystemOperations : Allowing user-supplied system call operations

// * * * * * * * * * * * * * * * * * * * * * * * * * * * * * * * * * * * * * //
Create time

Create mesh for time = 0

Reading transportProperties

Reading field p

Reading field U

Reading/calculating face flux field phi


Starting time loop

Time = 0.001

Courant Number mean: 0 max: 0
DILUPBiCGStab:  Solving for Ux, Initial residual = 1, Final residual = 8.38041e-30, No Iterations 5
DILUPBiCGStab:  Solving for Uy:  solution singularity
DILUPBiCGStab:  Solving for Uz:  solution singularity
linear solve U 151
[OGL LOG] init_host_sparsity_pattern : 0 ms
[OGL LOG] matrix not stored update host matrix
[OGL LOG] update_host_mtx : 0 ms
[OGL LOG] matrix is not yet sorted, compute sorting idxs
[OGL LOG] compute_sort : 0 ms
[OGL LOG] matrix is not yet sorted, sorting host matrix
[OGL LOG] sort_host_mtx_sparsity_pattern : 0 ms
[OGL LOG] sort_host_mtx : 0 ms
[OGL LOG] init_preconditioner : 0 ms
[OGL LOG] solve : 2 ms
BJompGKOBiCGStab:  Solving for p, Initial residual = 1, Final residual = 4.56547e-05, No Iterations 17
linear solve p 5744
time step continuity errors : sum local = 1.20334e-07, global = 1.07864e-21, cumulative = 1.07864e-21
[OGL LOG] init_host_sparsity_pattern : 0 ms
[OGL LOG] matrix not stored update host matrix
[OGL LOG] update_host_mtx : 0 ms
[OGL LOG] matrix is not yet sorted, sorting host matrix
[OGL LOG] sort_host_mtx_sparsity_pattern : 0 ms
[OGL LOG] sort_host_mtx : 0 ms
[OGL LOG] init_preconditioner : 0 ms
[OGL LOG] solve : 1 ms
BJompGKOBiCGStab:  Solving for p, Initial residual = 0.0546821, Final residual = 6.25983e-05, No Iterations 13
linear solve p 1741
time step continuity errors : sum local = 3.15158e-06, global = 3.85466e-22, cumulative = 1.46411e-21
ExecutionTime = 0.09 s  ClockTime = 0 s

Time = 0.002

Courant Number mean: 0.00059373 max: 0.00137349
DILUPBiCGStab:  Solving for Ux, Initial residual = 0.290577, Final residual = 1.32985e-30, No Iterations 5
DILUPBiCGStab:  Solving for Uy, Initial residual = 0.317538, Final residual = 1.13474e-30, No Iterations 5
DILUPBiCGStab:  Solving for Uz, Initial residual = 0.309588, Final residual = 2.11082e-30, No Iterations 5
linear solve U 110
[OGL LOG] init_host_sparsity_pattern : 0 ms
[OGL LOG] matrix not stored update host matrix
[OGL LOG] update_host_mtx : 0 ms
[OGL LOG] matrix is not yet sorted, sorting host matrix
[OGL LOG] sort_host_mtx_sparsity_pattern : 0 ms
[OGL LOG] sort_host_mtx : 0 ms
[OGL LOG] init_preconditioner : 0 ms
[OGL LOG] solve : 1 ms
BJompGKOBiCGStab:  Solving for p, Initial residual = 0.118826, Final residual = 8.15989e-05, No Iterations 12
linear solve p 1687
time step continuity errors : sum local = 1.53415e-06, global = -7.42477e-21, cumulative = -5.96066e-21
[OGL LOG] init_host_sparsity_pattern : 0 ms
[OGL LOG] matrix not stored update host matrix
[OGL LOG] update_host_mtx : 0 ms
[OGL LOG] matrix is not yet sorted, sorting host matrix
[OGL LOG] sort_host_mtx_sparsity_pattern : 0 ms
[OGL LOG] sort_host_mtx : 0 ms
[OGL LOG] init_preconditioner : 0 ms
[OGL LOG] solve : 1 ms
BJompGKOBiCGStab:  Solving for p, Initial residual = 0.00544057, Final residual = 8.46661e-05, No Iterations 10
linear solve p 1420
time step continuity errors : sum local = 3.23632e-07, global = -2.10104e-22, cumulative = -6.17077e-21
ExecutionTime = 0.13 s  ClockTime = 0 s

Time = 0.003

Courant Number mean: 0.0011306 max: 0.00263296
DILUPBiCGStab:  Solving for Ux, Initial residual = 0.161941, Final residual = 7.37712e-31, No Iterations 5
DILUPBiCGStab:  Solving for Uy, Initial residual = 0.186721, Final residual = 6.7949e-31, No Iterations 5
DILUPBiCGStab:  Solving for Uz, Initial residual = 0.304353, Final residual = 2.0038e-30, No Iterations 5
linear solve U 108
[OGL LOG] init_host_sparsity_pattern : 0 ms
[OGL LOG] matrix not stored update host matrix
[OGL LOG] update_host_mtx : 0 ms
[OGL LOG] matrix is not yet sorted, sorting host matrix
[OGL LOG] sort_host_mtx_sparsity_pattern : 0 ms
[OGL LOG] sort_host_mtx : 0 ms
[OGL LOG] init_preconditioner : 0 ms
[OGL LOG] solve : 1 ms
BJompGKOBiCGStab:  Solving for p, Initial residual = 0.0580975, Final residual = 1.78203e-05, No Iterations 13
linear solve p 1676
time step continuity errors : sum local = 1.94088e-06, global = -4.09082e-21, cumulative = -1.02616e-20
[OGL LOG] init_host_sparsity_pattern : 0 ms
[OGL LOG] matrix not stored update host matrix
[OGL LOG] update_host_mtx : 0 ms
[OGL LOG] matrix is not yet sorted, sorting host matrix
[OGL LOG] sort_host_mtx_sparsity_pattern : 0 ms
[OGL LOG] sort_host_mtx : 0 ms
[OGL LOG] init_preconditioner : 0 ms
[OGL LOG] solve : 1 ms
BJompGKOBiCGStab:  Solving for p, Initial residual = 0.00502111, Final residual = 9.71623e-05, No Iterations 9
linear solve p 1262
time step continuity errors : sum local = 1.93945e-07, global = 3.4245e-21, cumulative = -6.83709e-21
ExecutionTime = 0.18 s  ClockTime = 0 s

Time = 0.004

Courant Number mean: 0.00161828 max: 0.00379116
DILUPBiCGStab:  Solving for Ux, Initial residual = 0.108817, Final residual = 5.01336e-31, No Iterations 5
DILUPBiCGStab:  Solving for Uy, Initial residual = 0.12919, Final residual = 4.61406e-31, No Iterations 5
DILUPBiCGStab:  Solving for Uz, Initial residual = 0.20111, Final residual = 9.32019e-31, No Iterations 5
linear solve U 107
[OGL LOG] init_host_sparsity_pattern : 0 ms
[OGL LOG] matrix not stored update host matrix
[OGL LOG] update_host_mtx : 0 ms
[OGL LOG] matrix is not yet sorted, sorting host matrix
[OGL LOG] sort_host_mtx_sparsity_pattern : 0 ms
[OGL LOG] sort_host_mtx : 0 ms
[OGL LOG] init_preconditioner : 0 ms
[OGL LOG] solve : 1 ms
BJompGKOBiCGStab:  Solving for p, Initial residual = 0.0351672, Final residual = 6.98025e-05, No Iterations 10
linear solve p 1389
time step continuity errors : sum local = 8.38471e-07, global = -1.15937e-20, cumulative = -1.84308e-20
[OGL LOG] init_host_sparsity_pattern : 0 ms
[OGL LOG] matrix not stored update host matrix
[OGL LOG] update_host_mtx : 0 ms
[OGL LOG] matrix is not yet sorted, sorting host matrix
[OGL LOG] sort_host_mtx_sparsity_pattern : 0 ms
[OGL LOG] sort_host_mtx : 0 ms
[OGL LOG] init_preconditioner : 0 ms
[OGL LOG] solve : 0 ms
BJompGKOBiCGStab:  Solving for p, Initial residual = 0.00233657, Final residual = 9.85769e-05, No Iterations 3
linear solve p 688
time step continuity errors : sum local = 1.49896e-07, global = 3.20698e-21, cumulative = -1.52238e-20
ExecutionTime = 0.2 s  ClockTime = 0 s

Time = 0.005

Courant Number mean: 0.00206191 max: 0.00485802
DILUPBiCGStab:  Solving for Ux, Initial residual = 0.0800428, Final residual = 3.73209e-31, No Iterations 5
DILUPBiCGStab:  Solving for Uy, Initial residual = 0.0967021, Final residual = 3.34133e-31, No Iterations 5
DILUPBiCGStab:  Solving for Uz, Initial residual = 0.14038, Final residual = 7.08707e-31, No Iterations 5
linear solve U 108
[OGL LOG] init_host_sparsity_pattern : 0 ms
[OGL LOG] matrix not stored update host matrix
[OGL LOG] update_host_mtx : 0 ms
[OGL LOG] matrix is not yet sorted, sorting host matrix
[OGL LOG] sort_host_mtx_sparsity_pattern : 0 ms
[OGL LOG] sort_host_mtx : 0 ms
[OGL LOG] init_preconditioner : 0 ms
[OGL LOG] solve : 0 ms
BJompGKOBiCGStab:  Solving for p, Initial residual = 0.0236141, Final residual = 8.40144e-05, No Iterations 5
linear solve p 853
time step continuity errors : sum local = 5.77701e-08, global = 1.42788e-20, cumulative = -9.45054e-22
[OGL LOG] init_host_sparsity_pattern : 0 ms
[OGL LOG] matrix not stored update host matrix
[OGL LOG] update_host_mtx : 0 ms
[OGL LOG] matrix is not yet sorted, sorting host matrix
[OGL LOG] sort_host_mtx_sparsity_pattern : 0 ms
[OGL LOG] sort_host_mtx : 0 ms
[OGL LOG] init_preconditioner : 0 ms
[OGL LOG] solve : 0 ms
BJompGKOBiCGStab:  Solving for p, Initial residual = 0.00074894, Final residual = 5.17282e-05, No Iterations 2
linear solve p 621
time step continuity errors : sum local = 9.51162e-08, global = -2.22727e-20, cumulative = -2.32177e-20
ExecutionTime = 0.23 s  ClockTime = 0 s

Time = 0.006

Courant Number mean: 0.00246614 max: 0.00584206
DILUPBiCGStab:  Solving for Ux, Initial residual = 0.0620548, Final residual = 2.92133e-31, No Iterations 5
DILUPBiCGStab:  Solving for Uy, Initial residual = 0.075952, Final residual = 2.54461e-31, No Iterations 5
DILUPBiCGStab:  Solving for Uz, Initial residual = 0.120607, Final residual = 6.16552e-31, No Iterations 5
linear solve U 109
[OGL LOG] init_host_sparsity_pattern : 0 ms
[OGL LOG] matrix not stored update host matrix
[OGL LOG] update_host_mtx : 0 ms
[OGL LOG] matrix is not yet sorted, sorting host matrix
[OGL LOG] sort_host_mtx_sparsity_pattern : 0 ms
[OGL LOG] sort_host_mtx : 0 ms
[OGL LOG] init_preconditioner : 0 ms
[OGL LOG] solve : 0 ms
BJompGKOBiCGStab:  Solving for p, Initial residual = 0.0172267, Final residual = 9.92024e-05, No Iterations 4
linear solve p 809
time step continuity errors : sum local = 2.67743e-07, global = -2.46202e-20, cumulative = -4.78379e-20
[OGL LOG] init_host_sparsity_pattern : 0 ms
[OGL LOG] matrix not stored update host matrix
[OGL LOG] update_host_mtx : 0 ms
[OGL LOG] matrix is not yet sorted, sorting host matrix
[OGL LOG] sort_host_mtx_sparsity_pattern : 0 ms
[OGL LOG] sort_host_mtx : 0 ms
[OGL LOG] init_preconditioner : 0 ms
[OGL LOG] solve : 0 ms
BJompGKOBiCGStab:  Solving for p, Initial residual = 0.000644629, Final residual = 9.76464e-05, No Iterations 1
linear solve p 499
time step continuity errors : sum local = 1.48559e-07, global = 2.02874e-20, cumulative = -2.75505e-20
ExecutionTime = 0.25 s  ClockTime = 0 s

Time = 0.007

Courant Number mean: 0.00283511 max: 0.00675068
DILUPBiCGStab:  Solving for Ux, Initial residual = 0.0497911, Final residual = 2.36052e-31, No Iterations 5
DILUPBiCGStab:  Solving for Uy, Initial residual = 0.0616146, Final residual = 2.02479e-31, No Iterations 5
DILUPBiCGStab:  Solving for Uz, Initial residual = 0.104598, Final residual = 6.19997e-31, No Iterations 5
linear solve U 109
[OGL LOG] init_host_sparsity_pattern : 0 ms
[OGL LOG] matrix not stored update host matrix
[OGL LOG] update_host_mtx : 0 ms
[OGL LOG] matrix is not yet sorted, sorting host matrix
[OGL LOG] sort_host_mtx_sparsity_pattern : 0 ms
[OGL LOG] sort_host_mtx : 0 ms
[OGL LOG] init_preconditioner : 0 ms
[OGL LOG] solve : 1 ms
BJompGKOBiCGStab:  Solving for p, Initial residual = 0.0130984, Final residual = 7.72777e-05, No Iterations 10
linear solve p 1377
time step continuity errors : sum local = 9.85586e-07, global = -1.64642e-20, cumulative = -4.40147e-20
[OGL LOG] init_host_sparsity_pattern : 0 ms
[OGL LOG] matrix not stored update host matrix
[OGL LOG] update_host_mtx : 0 ms
[OGL LOG] matrix is not yet sorted, sorting host matrix
[OGL LOG] sort_host_mtx_sparsity_pattern : 0 ms
[OGL LOG] sort_host_mtx : 0 ms
[OGL LOG] init_preconditioner : 0 ms
[OGL LOG] solve : 0 ms
BJompGKOBiCGStab:  Solving for p, Initial residual = 0.00184017, Final residual = 9.91849e-05, No Iterations 6
linear solve p 984
time step continuity errors : sum local = 3.34982e-07, global = 7.29739e-21, cumulative = -3.67173e-20
ExecutionTime = 0.28 s  ClockTime = 0 s

Time = 0.008

Courant Number mean: 0.00317234 max: 0.00759074
DILUPBiCGStab:  Solving for Ux, Initial residual = 0.0409198, Final residual = 1.9573e-31, No Iterations 5
DILUPBiCGStab:  Solving for Uy, Initial residual = 0.0512024, Final residual = 1.66631e-31, No Iterations 5
DILUPBiCGStab:  Solving for Uz, Initial residual = 0.0870678, Final residual = 6.30327e-31, No Iterations 5
linear solve U 109
[OGL LOG] init_host_sparsity_pattern : 0 ms
[OGL LOG] matrix not stored update host matrix
[OGL LOG] update_host_mtx : 0 ms
[OGL LOG] matrix is not yet sorted, sorting host matrix
[OGL LOG] sort_host_mtx_sparsity_pattern : 0 ms
[OGL LOG] sort_host_mtx : 0 ms
[OGL LOG] init_preconditioner : 0 ms
[OGL LOG] solve : 1 ms
BJompGKOBiCGStab:  Solving for p, Initial residual = 0.0109331, Final residual = 7.26252e-05, No Iterations 10
linear solve p 1397
time step continuity errors : sum local = 1.58333e-06, global = 1.97862e-21, cumulative = -3.47387e-20
[OGL LOG] init_host_sparsity_pattern : 0 ms
[OGL LOG] matrix not stored update host matrix
[OGL LOG] update_host_mtx : 0 ms
[OGL LOG] matrix is not yet sorted, sorting host matrix
[OGL LOG] sort_host_mtx_sparsity_pattern : 0 ms
[OGL LOG] sort_host_mtx : 0 ms
[OGL LOG] init_preconditioner : 0 ms
[OGL LOG] solve : 0 ms
BJompGKOBiCGStab:  Solving for p, Initial residual = 0.00280792, Final residual = 9.9603e-05, No Iterations 6
linear solve p 953
time step continuity errors : sum local = 1.1943e-07, global = 8.22218e-21, cumulative = -2.65165e-20
ExecutionTime = 0.31 s  ClockTime = 0 s

Time = 0.009

Courant Number mean: 0.00348096 max: 0.0083682
DILUPBiCGStab:  Solving for Ux, Initial residual = 0.0342339, Final residual = 1.6577e-31, No Iterations 5
DILUPBiCGStab:  Solving for Uy, Initial residual = 0.0432993, Final residual = 1.40515e-31, No Iterations 5
DILUPBiCGStab:  Solving for Uz, Initial residual = 0.0770578, Final residual = 5.91754e-31, No Iterations 5
linear solve U 108
[OGL LOG] init_host_sparsity_pattern : 0 ms
[OGL LOG] matrix not stored update host matrix
[OGL LOG] update_host_mtx : 0 ms
[OGL LOG] matrix is not yet sorted, sorting host matrix
[OGL LOG] sort_host_mtx_sparsity_pattern : 0 ms
[OGL LOG] sort_host_mtx : 0 ms
[OGL LOG] init_preconditioner : 0 ms
[OGL LOG] solve : 1 ms
BJompGKOBiCGStab:  Solving for p, Initial residual = 0.00879932, Final residual = 9.96281e-05, No Iterations 9
linear solve p 1317
time step continuity errors : sum local = 1.21629e-06, global = 2.13081e-20, cumulative = -5.20839e-21
[OGL LOG] init_host_sparsity_pattern : 0 ms
[OGL LOG] matrix not stored update host matrix
[OGL LOG] update_host_mtx : 0 ms
[OGL LOG] matrix is not yet sorted, sorting host matrix
[OGL LOG] sort_host_mtx_sparsity_pattern : 0 ms
[OGL LOG] sort_host_mtx : 0 ms
[OGL LOG] init_preconditioner : 0 ms
[OGL LOG] solve : 0 ms
BJompGKOBiCGStab:  Solving for p, Initial residual = 0.00207669, Final residual = 9.07366e-05, No Iterations 7
linear solve p 1098
time step continuity errors : sum local = 4.15123e-07, global = 1.96637e-20, cumulative = 1.44553e-20
ExecutionTime = 0.34 s  ClockTime = 0 s

Time = 0.01

Courant Number mean: 0.00376374 max: 0.00908813
DILUPBiCGStab:  Solving for Ux, Initial residual = 0.0290578, Final residual = 1.43185e-31, No Iterations 5
DILUPBiCGStab:  Solving for Uy, Initial residual = 0.0371165, Final residual = 1.1926e-31, No Iterations 5
DILUPBiCGStab:  Solving for Uz, Initial residual = 0.0674141, Final residual = 5.03063e-31, No Iterations 5
linear solve U 109
[OGL LOG] init_host_sparsity_pattern : 0 ms
[OGL LOG] matrix not stored update host matrix
[OGL LOG] update_host_mtx : 0 ms
[OGL LOG] matrix is not yet sorted, sorting host matrix
[OGL LOG] sort_host_mtx_sparsity_pattern : 0 ms
[OGL LOG] sort_host_mtx : 0 ms
[OGL LOG] init_preconditioner : 0 ms
[OGL LOG] solve : 1 ms
BJompGKOBiCGStab:  Solving for p, Initial residual = 0.00805336, Final residual = 6.31474e-05, No Iterations 10
linear solve p 1389
time step continuity errors : sum local = 9.93089e-07, global = 4.06311e-21, cumulative = 1.85185e-20
[OGL LOG] init_host_sparsity_pattern : 0 ms
[OGL LOG] matrix not stored update host matrix
[OGL LOG] update_host_mtx : 0 ms
[OGL LOG] matrix is not yet sorted, sorting host matrix
[OGL LOG] sort_host_mtx_sparsity_pattern : 0 ms
[OGL LOG] sort_host_mtx : 0 ms
[OGL LOG] init_preconditioner : 0 ms
[OGL LOG] solve : 0 ms
BJompGKOBiCGStab:  Solving for p, Initial residual = 0.00172253, Final residual = 9.34998e-05, No Iterations 3
linear solve p 699
time step continuity errors : sum local = 1.96203e-07, global = 1.1243e-20, cumulative = 2.97615e-20
ExecutionTime = 0.37 s  ClockTime = 0 s

End

