/*---------------------------------------------------------------------------*\
  =========                 |
  \\      /  F ield         | OpenFOAM: The Open Source CFD Toolbox
   \\    /   O peration     | Website:  https://openfoam.org
    \\  /    A nd           | Version:  8
     \\/     M anipulation  |
\*---------------------------------------------------------------------------*/
Build  : 8-14d69e1ee166
Exec   : icoFoam
Date   : Jul 29 2021
Time   : 07:15:41
Host   : "guyot.icl.utk.edu"
PID    : 244474
I/O    : uncollated
Case   : /home/greole/code/OBR/lidDrivenCavity3D/Variation_mesh/85/Variation_matrix_solver/CG_DIC_Serial/base
nProcs : 1
sigFpe : Enabling floating point exception trapping (FOAM_SIGFPE).
fileModificationChecking : Monitoring run-time modified files using timeStampMaster (fileModificationSkew 10)
allowSystemOperations : Allowing user-supplied system call operations

// * * * * * * * * * * * * * * * * * * * * * * * * * * * * * * * * * * * * * //
Create time

Create mesh for time = 0

Reading transportProperties

Reading field p

Reading field U

Reading/calculating face flux field phi


Starting time loop

Time = 0.001

Courant Number mean: 0 max: 0
DILUPBiCGStab:  Solving for Ux, Initial residual = 1, Final residual = 0.00382019, No Iterations 5
DILUPBiCGStab:  Solving for Uy:  solution singularity
DILUPBiCGStab:  Solving for Uz:  solution singularity
linear solve U 237782
DICPCG:  Solving for p, Initial residual = 1, Final residual = 9.35237e-05, No Iterations 213
linear solve p 2635790
time step continuity errors : sum local = 5.46436e-08, global = -7.6858e-21, cumulative = -7.6858e-21
DICPCG:  Solving for p, Initial residual = 0.755072, Final residual = 8.88873e-05, No Iterations 212
linear solve p 2628440
time step continuity errors : sum local = 6.69724e-08, global = -5.50772e-21, cumulative = -1.31935e-20
ExecutionTime = 8.37 s  ClockTime = 8 s

Time = 0.002

Courant Number mean: 0.0479746 max: 0.661591
DILUPBiCGStab:  Solving for Ux, Initial residual = 0.144106, Final residual = 0.00147913, No Iterations 5
DILUPBiCGStab:  Solving for Uy, Initial residual = 0.396914, Final residual = 0.00365132, No Iterations 5
DILUPBiCGStab:  Solving for Uz, Initial residual = 0.988273, Final residual = 0.0100677, No Iterations 5
linear solve U 465950
DICPCG:  Solving for p, Initial residual = 0.7458, Final residual = 9.32166e-05, No Iterations 209
linear solve p 2528880
time step continuity errors : sum local = 8.66562e-08, global = -5.67357e-21, cumulative = -1.88671e-20
DICPCG:  Solving for p, Initial residual = 0.680784, Final residual = 9.94033e-05, No Iterations 208
linear solve p 2522972
time step continuity errors : sum local = 9.43187e-08, global = 4.94257e-23, cumulative = -1.88177e-20
ExecutionTime = 14.15 s  ClockTime = 14 s

Time = 0.003

Courant Number mean: 0.0723207 max: 0.775889
DILUPBiCGStab:  Solving for Ux, Initial residual = 0.0580459, Final residual = 0.000501147, No Iterations 5
DILUPBiCGStab:  Solving for Uy, Initial residual = 0.162035, Final residual = 0.00140366, No Iterations 5
DILUPBiCGStab:  Solving for Uz, Initial residual = 0.731228, Final residual = 0.00680688, No Iterations 5
linear solve U 463083
DICPCG:  Solving for p, Initial residual = 0.746218, Final residual = 8.84332e-05, No Iterations 116
linear solve p 1452716
time step continuity errors : sum local = 7.47371e-08, global = 7.88719e-21, cumulative = -1.09305e-20
DICPCG:  Solving for p, Initial residual = 0.706444, Final residual = 8.95481e-05, No Iterations 115
linear solve p 1433807
time step continuity errors : sum local = 6.82492e-08, global = -1.12538e-20, cumulative = -2.21843e-20
ExecutionTime = 17.77 s  ClockTime = 18 s

Time = 0.004

Courant Number mean: 0.0841985 max: 0.778364
DILUPBiCGStab:  Solving for Ux, Initial residual = 0.0310195, Final residual = 0.000293409, No Iterations 5
DILUPBiCGStab:  Solving for Uy, Initial residual = 0.113892, Final residual = 0.000994895, No Iterations 5
DILUPBiCGStab:  Solving for Uz, Initial residual = 0.458063, Final residual = 0.00359486, No Iterations 5
linear solve U 463252
DICPCG:  Solving for p, Initial residual = 0.592519, Final residual = 9.59706e-05, No Iterations 114
linear solve p 1415465
time step continuity errors : sum local = 6.39916e-08, global = 9.10797e-21, cumulative = -1.30763e-20
DICPCG:  Solving for p, Initial residual = 0.528897, Final residual = 9.07423e-05, No Iterations 113
linear solve p 1414385
time step continuity errors : sum local = 6.0448e-08, global = 5.51893e-22, cumulative = -1.25244e-20
ExecutionTime = 21.33 s  ClockTime = 21 s

Time = 0.005

Courant Number mean: 0.0944147 max: 0.789477
DILUPBiCGStab:  Solving for Ux, Initial residual = 0.0232318, Final residual = 0.000192079, No Iterations 5
DILUPBiCGStab:  Solving for Uy, Initial residual = 0.0587717, Final residual = 0.000431913, No Iterations 5
DILUPBiCGStab:  Solving for Uz, Initial residual = 0.267826, Final residual = 0.00209839, No Iterations 5
linear solve U 460548
DICPCG:  Solving for p, Initial residual = 0.548314, Final residual = 9.37629e-05, No Iterations 101
linear solve p 1256496
time step continuity errors : sum local = 6.00871e-08, global = 5.82764e-21, cumulative = -6.69677e-21
DICPCG:  Solving for p, Initial residual = 0.495411, Final residual = 9.46831e-05, No Iterations 99
linear solve p 1239860
time step continuity errors : sum local = 5.19666e-08, global = 1.62949e-20, cumulative = 9.59815e-21
ExecutionTime = 24.56 s  ClockTime = 25 s

Time = 0.006

Courant Number mean: 0.101921 max: 0.795154
DILUPBiCGStab:  Solving for Ux, Initial residual = 0.0150717, Final residual = 0.000113946, No Iterations 5
DILUPBiCGStab:  Solving for Uy, Initial residual = 0.0475922, Final residual = 0.00033883, No Iterations 5
DILUPBiCGStab:  Solving for Uz, Initial residual = 0.195124, Final residual = 0.00158128, No Iterations 5
linear solve U 462655
DICPCG:  Solving for p, Initial residual = 0.4043, Final residual = 9.92761e-05, No Iterations 100
linear solve p 1234279
time step continuity errors : sum local = 5.607e-08, global = -2.849e-21, cumulative = 6.74915e-21
DICPCG:  Solving for p, Initial residual = 0.353057, Final residual = 9.79071e-05, No Iterations 98
linear solve p 1211073
time step continuity errors : sum local = 4.85056e-08, global = -6.18756e-21, cumulative = 5.61596e-22
ExecutionTime = 27.73 s  ClockTime = 28 s

Time = 0.007

Courant Number mean: 0.108308 max: 0.798727
DILUPBiCGStab:  Solving for Ux, Initial residual = 0.0125829, Final residual = 8.36922e-05, No Iterations 5
DILUPBiCGStab:  Solving for Uy, Initial residual = 0.0314742, Final residual = 0.000144394, No Iterations 5
DILUPBiCGStab:  Solving for Uz, Initial residual = 0.112941, Final residual = 0.00114636, No Iterations 5
linear solve U 465148
DICPCG:  Solving for p, Initial residual = 0.34914, Final residual = 8.58323e-05, No Iterations 199
linear solve p 2463030
time step continuity errors : sum local = 3.52488e-08, global = 3.40399e-22, cumulative = 9.01995e-22
DICPCG:  Solving for p, Initial residual = 0.303588, Final residual = 9.48008e-05, No Iterations 198
linear solve p 2446041
time step continuity errors : sum local = 3.88523e-08, global = -7.92454e-21, cumulative = -7.02254e-21
ExecutionTime = 33.37 s  ClockTime = 33 s

Time = 0.008

Courant Number mean: 0.113581 max: 0.802064
DILUPBiCGStab:  Solving for Ux, Initial residual = 0.00948562, Final residual = 5.53695e-05, No Iterations 5
DILUPBiCGStab:  Solving for Uy, Initial residual = 0.0267023, Final residual = 0.000128681, No Iterations 5
DILUPBiCGStab:  Solving for Uz, Initial residual = 0.0901775, Final residual = 0.00076229, No Iterations 5
linear solve U 462123
DICPCG:  Solving for p, Initial residual = 0.254954, Final residual = 9.93356e-05, No Iterations 105
linear solve p 1279776
time step continuity errors : sum local = 4.73832e-08, global = -1.19796e-20, cumulative = -1.90021e-20
DICPCG:  Solving for p, Initial residual = 0.219321, Final residual = 9.38903e-05, No Iterations 96
linear solve p 1184628
time step continuity errors : sum local = 4.03928e-08, global = -1.24916e-20, cumulative = -3.14937e-20
ExecutionTime = 36.57 s  ClockTime = 37 s

Time = 0.009

Courant Number mean: 0.118147 max: 0.804085
DILUPBiCGStab:  Solving for Ux, Initial residual = 0.00806548, Final residual = 4.22618e-05, No Iterations 5
DILUPBiCGStab:  Solving for Uy, Initial residual = 0.0203777, Final residual = 6.94363e-05, No Iterations 5
DILUPBiCGStab:  Solving for Uz, Initial residual = 0.0570881, Final residual = 0.000409727, No Iterations 5
linear solve U 462948
DICPCG:  Solving for p, Initial residual = 0.208678, Final residual = 9.88644e-05, No Iterations 180
linear solve p 2179572
time step continuity errors : sum local = 3.70563e-08, global = -2.43112e-21, cumulative = -3.39248e-20
DICPCG:  Solving for p, Initial residual = 0.178253, Final residual = 9.06136e-05, No Iterations 180
linear solve p 2249229
time step continuity errors : sum local = 3.39893e-08, global = -5.2132e-22, cumulative = -3.44462e-20
ExecutionTime = 41.73 s  ClockTime = 42 s

Time = 0.01

Courant Number mean: 0.122093 max: 0.806137
DILUPBiCGStab:  Solving for Ux, Initial residual = 0.00663637, Final residual = 3.17736e-05, No Iterations 5
DILUPBiCGStab:  Solving for Uy, Initial residual = 0.0177468, Final residual = 5.74828e-05, No Iterations 5
DILUPBiCGStab:  Solving for Uz, Initial residual = 0.048694, Final residual = 0.000342475, No Iterations 5
linear solve U 465764
DICPCG:  Solving for p, Initial residual = 0.156403, Final residual = 9.21022e-05, No Iterations 93
linear solve p 1126930
time step continuity errors : sum local = 3.86855e-08, global = 1.32922e-20, cumulative = -2.1154e-20
DICPCG:  Solving for p, Initial residual = 0.132677, Final residual = 8.69685e-05, No Iterations 92
linear solve p 1149453
time step continuity errors : sum local = 3.34883e-08, global = -2.53613e-20, cumulative = -4.65153e-20
ExecutionTime = 44.73 s  ClockTime = 45 s

End

