/*---------------------------------------------------------------------------*\
  =========                 |
  \\      /  F ield         | OpenFOAM: The Open Source CFD Toolbox
   \\    /   O peration     | Website:  https://openfoam.org
    \\  /    A nd           | Version:  8
     \\/     M anipulation  |
\*---------------------------------------------------------------------------*/
Build  : 8-ef60d22ea792
Exec   : icoFoam
Date   : Jul 28 2021
Time   : 23:10:19
Host   : "uc2n414.localdomain"
PID    : 2833585
I/O    : uncollated
Case   : /pfs/data5/home/kit/scc/nq7776/code/OBR/lidDrivenCavity3D/Variation_mesh/90/Variation_matrix_solver/IR_NoPrecond_OMP/base
nProcs : 1
sigFpe : Enabling floating point exception trapping (FOAM_SIGFPE).
fileModificationChecking : Monitoring run-time modified files using timeStampMaster (fileModificationSkew 10)
allowSystemOperations : Allowing user-supplied system call operations

// * * * * * * * * * * * * * * * * * * * * * * * * * * * * * * * * * * * * * //
Create time

Create mesh for time = 0

Reading transportProperties

Reading field p

Reading field U

Reading/calculating face flux field phi


Starting time loop

Time = 0.001

Courant Number mean: 0 max: 0
DILUPBiCGStab:  Solving for Ux, Initial residual = 1, Final residual = 0.00485432, No Iterations 5
DILUPBiCGStab:  Solving for Uy:  solution singularity
DILUPBiCGStab:  Solving for Uz:  solution singularity
linear solve U 349335
[OGL LOG] init_host_sparsity_pattern : 210 ms
[OGL LOG] matrix not stored update host matrix
[OGL LOG] update_host_mtx : 108 ms
[OGL LOG] matrix is not yet sorted, compute sorting idxs
[OGL LOG] compute_sort : 6595 ms
[OGL LOG] matrix is not yet sorted, sorting host matrix
[OGL LOG] sort_host_mtx_sparsity_pattern : 151 ms
[OGL LOG] sort_host_mtx : 90 ms
[OGL LOG] init_preconditioner : 0 ms
[OGL LOG] solve : 17686 ms
noneompGKOIR:  Solving for p, Initial residual = 1, Final residual = 1.30563e-05, No Iterations 3
linear solve p 24995813
time step continuity errors : sum local = 7.61724e-09, global = 1.4844e-20, cumulative = 1.4844e-20
[OGL LOG] init_host_sparsity_pattern : 202 ms
[OGL LOG] matrix not stored update host matrix
[OGL LOG] update_host_mtx : 107 ms
[OGL LOG] matrix is not yet sorted, sorting host matrix
[OGL LOG] sort_host_mtx_sparsity_pattern : 154 ms
[OGL LOG] sort_host_mtx : 89 ms
[OGL LOG] init_preconditioner : 0 ms
[OGL LOG] solve : 17675 ms
noneompGKOIR:  Solving for p, Initial residual = 0.763308, Final residual = 6.99611e-06, No Iterations 3
linear solve p 18337675
time step continuity errors : sum local = 5.2199e-09, global = -1.85258e-21, cumulative = 1.29915e-20
ExecutionTime = 46.63 s  ClockTime = 47 s

Time = 0.002

Courant Number mean: 0.0507368 max: 0.709498
DILUPBiCGStab:  Solving for Ux, Initial residual = 0.142056, Final residual = 0.00197771, No Iterations 5
DILUPBiCGStab:  Solving for Uy, Initial residual = 0.408402, Final residual = 0.00514586, No Iterations 5
DILUPBiCGStab:  Solving for Uz, Initial residual = 0.989084, Final residual = 0.0136246, No Iterations 5
linear solve U 679747
[OGL LOG] init_host_sparsity_pattern : 196 ms
[OGL LOG] matrix not stored update host matrix
[OGL LOG] update_host_mtx : 109 ms
[OGL LOG] matrix is not yet sorted, sorting host matrix
[OGL LOG] sort_host_mtx_sparsity_pattern : 152 ms
[OGL LOG] sort_host_mtx : 89 ms
[OGL LOG] init_preconditioner : 0 ms
[OGL LOG] solve : 17892 ms
noneompGKOIR:  Solving for p, Initial residual = 0.765676, Final residual = 4.07137e-06, No Iterations 3
linear solve p 18549741
time step continuity errors : sum local = 3.92226e-09, global = 2.25823e-21, cumulative = 1.52497e-20
[OGL LOG] init_host_sparsity_pattern : 210 ms
[OGL LOG] matrix not stored update host matrix
[OGL LOG] update_host_mtx : 108 ms
[OGL LOG] matrix is not yet sorted, sorting host matrix
[OGL LOG] sort_host_mtx_sparsity_pattern : 151 ms
[OGL LOG] sort_host_mtx : 89 ms
[OGL LOG] init_preconditioner : 0 ms
[OGL LOG] solve : 17719 ms
noneompGKOIR:  Solving for p, Initial residual = 0.702757, Final residual = 3.28813e-06, No Iterations 3
linear solve p 18389282
time step continuity errors : sum local = 3.23333e-09, global = 3.97826e-21, cumulative = 1.9228e-20
ExecutionTime = 84.56 s  ClockTime = 85 s

Time = 0.003

Courant Number mean: 0.0767031 max: 0.830944
DILUPBiCGStab:  Solving for Ux, Initial residual = 0.0602979, Final residual = 0.000670334, No Iterations 5
DILUPBiCGStab:  Solving for Uy, Initial residual = 0.1814, Final residual = 0.0018351, No Iterations 5
DILUPBiCGStab:  Solving for Uz, Initial residual = 0.759578, Final residual = 0.00949566, No Iterations 5
linear solve U 684798
[OGL LOG] init_host_sparsity_pattern : 204 ms
[OGL LOG] matrix not stored update host matrix
[OGL LOG] update_host_mtx : 107 ms
[OGL LOG] matrix is not yet sorted, sorting host matrix
[OGL LOG] sort_host_mtx_sparsity_pattern : 151 ms
[OGL LOG] sort_host_mtx : 89 ms
[OGL LOG] init_preconditioner : 0 ms
[OGL LOG] solve : 18517 ms
noneompGKOIR:  Solving for p, Initial residual = 0.780653, Final residual = 3.04978e-06, No Iterations 3
linear solve p 19180597
time step continuity errors : sum local = 2.48908e-09, global = -1.99849e-21, cumulative = 1.72295e-20
[OGL LOG] init_host_sparsity_pattern : 210 ms
[OGL LOG] matrix not stored update host matrix
[OGL LOG] update_host_mtx : 108 ms
[OGL LOG] matrix is not yet sorted, sorting host matrix
[OGL LOG] sort_host_mtx_sparsity_pattern : 150 ms
[OGL LOG] sort_host_mtx : 89 ms
[OGL LOG] init_preconditioner : 0 ms
[OGL LOG] solve : 18669 ms
noneompGKOIR:  Solving for p, Initial residual = 0.74401, Final residual = 2.74955e-06, No Iterations 3
linear solve p 19337856
time step continuity errors : sum local = 2.18261e-09, global = -5.66986e-21, cumulative = 1.15596e-20
ExecutionTime = 124.05 s  ClockTime = 124 s

Time = 0.004

Courant Number mean: 0.0889412 max: 0.827773
DILUPBiCGStab:  Solving for Ux, Initial residual = 0.0330623, Final residual = 0.000439351, No Iterations 5
DILUPBiCGStab:  Solving for Uy, Initial residual = 0.129996, Final residual = 0.00153298, No Iterations 5
DILUPBiCGStab:  Solving for Uz, Initial residual = 0.520686, Final residual = 0.00548959, No Iterations 5
linear solve U 684338
[OGL LOG] init_host_sparsity_pattern : 204 ms
[OGL LOG] matrix not stored update host matrix
[OGL LOG] update_host_mtx : 108 ms
[OGL LOG] matrix is not yet sorted, sorting host matrix
[OGL LOG] sort_host_mtx_sparsity_pattern : 151 ms
[OGL LOG] sort_host_mtx : 91 ms
[OGL LOG] init_preconditioner : 0 ms
[OGL LOG] solve : 18481 ms
noneompGKOIR:  Solving for p, Initial residual = 0.652364, Final residual = 2.47992e-06, No Iterations 3
linear solve p 19146845
time step continuity errors : sum local = 1.77185e-09, global = 2.55028e-21, cumulative = 1.41099e-20
[OGL LOG] init_host_sparsity_pattern : 211 ms
[OGL LOG] matrix not stored update host matrix
[OGL LOG] update_host_mtx : 107 ms
[OGL LOG] matrix is not yet sorted, sorting host matrix
[OGL LOG] sort_host_mtx_sparsity_pattern : 153 ms
[OGL LOG] sort_host_mtx : 89 ms
[OGL LOG] init_preconditioner : 0 ms
[OGL LOG] solve : 18447 ms
noneompGKOIR:  Solving for p, Initial residual = 0.586945, Final residual = 2.05281e-06, No Iterations 3
linear solve p 19119929
time step continuity errors : sum local = 1.4873e-09, global = 3.68308e-21, cumulative = 1.7793e-20
ExecutionTime = 163.3 s  ClockTime = 164 s

Time = 0.005

Courant Number mean: 0.0998624 max: 0.839544
DILUPBiCGStab:  Solving for Ux, Initial residual = 0.0250828, Final residual = 0.000294977, No Iterations 5
DILUPBiCGStab:  Solving for Uy, Initial residual = 0.0681918, Final residual = 0.000857101, No Iterations 5
DILUPBiCGStab:  Solving for Uz, Initial residual = 0.370406, Final residual = 0.00369131, No Iterations 5
linear solve U 685384
[OGL LOG] init_host_sparsity_pattern : 205 ms
[OGL LOG] matrix not stored update host matrix
[OGL LOG] update_host_mtx : 107 ms
[OGL LOG] matrix is not yet sorted, sorting host matrix
[OGL LOG] sort_host_mtx_sparsity_pattern : 151 ms
[OGL LOG] sort_host_mtx : 89 ms
[OGL LOG] init_preconditioner : 0 ms
[OGL LOG] solve : 17795 ms
noneompGKOIR:  Solving for p, Initial residual = 0.628267, Final residual = 2.17661e-06, No Iterations 3
linear solve p 18459098
time step continuity errors : sum local = 1.23433e-09, global = -8.67398e-21, cumulative = 9.11899e-21
[OGL LOG] init_host_sparsity_pattern : 210 ms
[OGL LOG] matrix not stored update host matrix
[OGL LOG] update_host_mtx : 108 ms
[OGL LOG] matrix is not yet sorted, sorting host matrix
[OGL LOG] sort_host_mtx_sparsity_pattern : 151 ms
[OGL LOG] sort_host_mtx : 89 ms
[OGL LOG] init_preconditioner : 0 ms
[OGL LOG] solve : 17949 ms
noneompGKOIR:  Solving for p, Initial residual = 0.576284, Final residual = 1.57957e-06, No Iterations 3
linear solve p 18626266
time step continuity errors : sum local = 8.8453e-10, global = -1.38534e-20, cumulative = -4.73438e-21
ExecutionTime = 201.37 s  ClockTime = 202 s

Time = 0.006

Courant Number mean: 0.107709 max: 0.845113
DILUPBiCGStab:  Solving for Ux, Initial residual = 0.0160844, Final residual = 0.000182773, No Iterations 5
DILUPBiCGStab:  Solving for Uy, Initial residual = 0.0558401, Final residual = 0.000624167, No Iterations 5
DILUPBiCGStab:  Solving for Uz, Initial residual = 0.261793, Final residual = 0.00268401, No Iterations 5
linear solve U 684745
[OGL LOG] init_host_sparsity_pattern : 204 ms
[OGL LOG] matrix not stored update host matrix
[OGL LOG] update_host_mtx : 107 ms
[OGL LOG] matrix is not yet sorted, sorting host matrix
[OGL LOG] sort_host_mtx_sparsity_pattern : 151 ms
[OGL LOG] sort_host_mtx : 89 ms
[OGL LOG] init_preconditioner : 0 ms
[OGL LOG] solve : 18963 ms
noneompGKOIR:  Solving for p, Initial residual = 0.494285, Final residual = 1.5373e-06, No Iterations 3
linear solve p 19625486
time step continuity errors : sum local = 8.07215e-10, global = -7.42792e-21, cumulative = -1.21623e-20
[OGL LOG] init_host_sparsity_pattern : 211 ms
[OGL LOG] matrix not stored update host matrix
[OGL LOG] update_host_mtx : 108 ms
[OGL LOG] matrix is not yet sorted, sorting host matrix
[OGL LOG] sort_host_mtx_sparsity_pattern : 151 ms
[OGL LOG] sort_host_mtx : 89 ms
[OGL LOG] init_preconditioner : 0 ms
[OGL LOG] solve : 19053 ms
noneompGKOIR:  Solving for p, Initial residual = 0.438527, Final residual = 1.30953e-06, No Iterations 3
linear solve p 19724095
time step continuity errors : sum local = 6.89094e-10, global = -1.43293e-21, cumulative = -1.35952e-20
ExecutionTime = 241.69 s  ClockTime = 242 s

Time = 0.007

Courant Number mean: 0.114495 max: 0.848538
DILUPBiCGStab:  Solving for Ux, Initial residual = 0.0135927, Final residual = 0.000136439, No Iterations 5
DILUPBiCGStab:  Solving for Uy, Initial residual = 0.0360937, Final residual = 0.000312125, No Iterations 5
DILUPBiCGStab:  Solving for Uz, Initial residual = 0.169997, Final residual = 0.00193728, No Iterations 5
linear solve U 690803
[OGL LOG] init_host_sparsity_pattern : 204 ms
[OGL LOG] matrix not stored update host matrix
[OGL LOG] update_host_mtx : 108 ms
[OGL LOG] matrix is not yet sorted, sorting host matrix
[OGL LOG] sort_host_mtx_sparsity_pattern : 151 ms
[OGL LOG] sort_host_mtx : 89 ms
[OGL LOG] init_preconditioner : 0 ms
[OGL LOG] solve : 16883 ms
noneompGKOIR:  Solving for p, Initial residual = 0.454952, Final residual = 1.26216e-06, No Iterations 3
linear solve p 17547372
time step continuity errors : sum local = 5.5575e-10, global = -1.22516e-20, cumulative = -2.58468e-20
[OGL LOG] init_host_sparsity_pattern : 210 ms
[OGL LOG] matrix not stored update host matrix
[OGL LOG] update_host_mtx : 109 ms
[OGL LOG] matrix is not yet sorted, sorting host matrix
[OGL LOG] sort_host_mtx_sparsity_pattern : 151 ms
[OGL LOG] sort_host_mtx : 89 ms
[OGL LOG] init_preconditioner : 0 ms
[OGL LOG] solve : 6374 ms
noneompGKOIR:  Solving for p, Initial residual = 0.401936, Final residual = 8.73504e-05, No Iterations 2
linear solve p 7046118
time step continuity errors : sum local = 4.10359e-08, global = -1.05603e-20, cumulative = -3.64071e-20
ExecutionTime = 267.29 s  ClockTime = 268 s

Time = 0.008

Courant Number mean: 0.120057 max: 0.852061
DILUPBiCGStab:  Solving for Ux, Initial residual = 0.0099617, Final residual = 8.95989e-05, No Iterations 5
DILUPBiCGStab:  Solving for Uy, Initial residual = 0.0308188, Final residual = 0.000267872, No Iterations 5
DILUPBiCGStab:  Solving for Uz, Initial residual = 0.130017, Final residual = 0.00147334, No Iterations 5
linear solve U 684185
[OGL LOG] init_host_sparsity_pattern : 204 ms
[OGL LOG] matrix not stored update host matrix
[OGL LOG] update_host_mtx : 108 ms
[OGL LOG] matrix is not yet sorted, sorting host matrix
[OGL LOG] sort_host_mtx_sparsity_pattern : 151 ms
[OGL LOG] sort_host_mtx : 89 ms
[OGL LOG] init_preconditioner : 0 ms
[OGL LOG] solve : 8811 ms
noneompGKOIR:  Solving for p, Initial residual = 0.351108, Final residual = 9.08196e-05, No Iterations 2
linear solve p 9475972
time step continuity errors : sum local = 4.39544e-08, global = 8.9432e-22, cumulative = -3.55128e-20
[OGL LOG] init_host_sparsity_pattern : 211 ms
[OGL LOG] matrix not stored update host matrix
[OGL LOG] update_host_mtx : 108 ms
[OGL LOG] matrix is not yet sorted, sorting host matrix
[OGL LOG] sort_host_mtx_sparsity_pattern : 151 ms
[OGL LOG] sort_host_mtx : 89 ms
[OGL LOG] init_preconditioner : 0 ms
[OGL LOG] solve : 8877 ms
noneompGKOIR:  Solving for p, Initial residual = 0.306351, Final residual = 7.44204e-05, No Iterations 2
linear solve p 9547737
time step continuity errors : sum local = 3.58966e-08, global = -7.19341e-22, cumulative = -3.62321e-20
ExecutionTime = 287.34 s  ClockTime = 288 s

Time = 0.009

Courant Number mean: 0.124912 max: 0.853936
DILUPBiCGStab:  Solving for Ux, Initial residual = 0.00859247, Final residual = 6.83246e-05, No Iterations 5
DILUPBiCGStab:  Solving for Uy, Initial residual = 0.0226715, Final residual = 0.000134505, No Iterations 5
DILUPBiCGStab:  Solving for Uz, Initial residual = 0.0868992, Final residual = 0.00114198, No Iterations 5
linear solve U 685311
[OGL LOG] init_host_sparsity_pattern : 204 ms
[OGL LOG] matrix not stored update host matrix
[OGL LOG] update_host_mtx : 108 ms
[OGL LOG] matrix is not yet sorted, sorting host matrix
[OGL LOG] sort_host_mtx_sparsity_pattern : 151 ms
[OGL LOG] sort_host_mtx : 89 ms
[OGL LOG] init_preconditioner : 0 ms
[OGL LOG] solve : 7993 ms
noneompGKOIR:  Solving for p, Initial residual = 0.306616, Final residual = 7.2876e-05, No Iterations 2
linear solve p 8657616
time step continuity errors : sum local = 3.09298e-08, global = 8.29917e-21, cumulative = -2.7933e-20
[OGL LOG] init_host_sparsity_pattern : 210 ms
[OGL LOG] matrix not stored update host matrix
[OGL LOG] update_host_mtx : 108 ms
[OGL LOG] matrix is not yet sorted, sorting host matrix
[OGL LOG] sort_host_mtx_sparsity_pattern : 151 ms
[OGL LOG] sort_host_mtx : 88 ms
[OGL LOG] init_preconditioner : 0 ms
[OGL LOG] solve : 8046 ms
noneompGKOIR:  Solving for p, Initial residual = 0.265368, Final residual = 6.36176e-05, No Iterations 2
linear solve p 8715822
time step continuity errors : sum local = 2.63088e-08, global = -1.1059e-20, cumulative = -3.8992e-20
ExecutionTime = 305.74 s  ClockTime = 307 s

Time = 0.01

Courant Number mean: 0.129095 max: 0.856118
DILUPBiCGStab:  Solving for Ux, Initial residual = 0.00686126, Final residual = 4.8145e-05, No Iterations 5
DILUPBiCGStab:  Solving for Uy, Initial residual = 0.0198733, Final residual = 0.000120286, No Iterations 5
DILUPBiCGStab:  Solving for Uz, Initial residual = 0.0713688, Final residual = 0.00085387, No Iterations 5
linear solve U 685510
[OGL LOG] init_host_sparsity_pattern : 204 ms
[OGL LOG] matrix not stored update host matrix
[OGL LOG] update_host_mtx : 108 ms
[OGL LOG] matrix is not yet sorted, sorting host matrix
[OGL LOG] sort_host_mtx_sparsity_pattern : 153 ms
[OGL LOG] sort_host_mtx : 89 ms
[OGL LOG] init_preconditioner : 0 ms
[OGL LOG] solve : 14018 ms
noneompGKOIR:  Solving for p, Initial residual = 0.24045, Final residual = 5.4829e-05, No Iterations 2
linear solve p 14684468
time step continuity errors : sum local = 2.05761e-08, global = -1.56348e-20, cumulative = -5.46268e-20
[OGL LOG] init_host_sparsity_pattern : 211 ms
[OGL LOG] matrix not stored update host matrix
[OGL LOG] update_host_mtx : 108 ms
[OGL LOG] matrix is not yet sorted, sorting host matrix
[OGL LOG] sort_host_mtx_sparsity_pattern : 151 ms
[OGL LOG] sort_host_mtx : 89 ms
[OGL LOG] init_preconditioner : 0 ms
[OGL LOG] solve : 14034 ms
noneompGKOIR:  Solving for p, Initial residual = 0.207449, Final residual = 4.81741e-05, No Iterations 2
linear solve p 14704404
time step continuity errors : sum local = 1.80203e-08, global = 1.46032e-20, cumulative = -4.00236e-20
ExecutionTime = 336.11 s  ClockTime = 337 s

End

