/*---------------------------------------------------------------------------*\
  =========                 |
  \\      /  F ield         | OpenFOAM: The Open Source CFD Toolbox
   \\    /   O peration     | Website:  https://openfoam.org
    \\  /    A nd           | Version:  8
     \\/     M anipulation  |
\*---------------------------------------------------------------------------*/
Build  : 8-14d69e1ee166
Exec   : icoFoam
Date   : Jul 29 2021
Time   : 05:25:42
Host   : "guyot.icl.utk.edu"
PID    : 24458
I/O    : uncollated
Case   : /home/greole/code/OBR/lidDrivenCavity3D/Variation_mesh/100/Variation_matrix_solver/CG_NoPrecond_CUDA/base
nProcs : 1
sigFpe : Enabling floating point exception trapping (FOAM_SIGFPE).
fileModificationChecking : Monitoring run-time modified files using timeStampMaster (fileModificationSkew 10)
allowSystemOperations : Allowing user-supplied system call operations

// * * * * * * * * * * * * * * * * * * * * * * * * * * * * * * * * * * * * * //
Create time

Create mesh for time = 0

Reading transportProperties

Reading field p

Reading field U

Reading/calculating face flux field phi


Starting time loop

Time = 0.001

Courant Number mean: 0 max: 0
DILUPBiCGStab:  Solving for Ux, Initial residual = 1, Final residual = 0.00717233, No Iterations 5
DILUPBiCGStab:  Solving for Uy:  solution singularity
DILUPBiCGStab:  Solving for Uz:  solution singularity
linear solve U 392806
[OGL LOG] init_host_sparsity_pattern : 445 ms
[OGL LOG] matrix not stored update host matrix
[OGL LOG] update_host_mtx : 221 ms
[OGL LOG] matrix is not yet sorted, compute sorting idxs
[OGL LOG] compute_sort : 10928 ms
[OGL LOG] matrix is not yet sorted, sorting host matrix
[OGL LOG] sort_host_mtx_sparsity_pattern : 199 ms
[OGL LOG] sort_host_mtx : 122 ms
[OGL LOG] init_preconditioner : 0 ms
[OGL LOG] solve : 1082 ms
nonecudaGKOCG:  Solving for p, Initial residual = 1, Final residual = 9.85065e-05, No Iterations 792
linear solve p 14756035
time step continuity errors : sum local = 5.6427e-08, global = 1.58833e-20, cumulative = 1.58833e-20
[OGL LOG] init_host_sparsity_pattern : 425 ms
[OGL LOG] matrix not stored update host matrix
[OGL LOG] update_host_mtx : 223 ms
[OGL LOG] matrix is not yet sorted, sorting host matrix
[OGL LOG] sort_host_mtx_sparsity_pattern : 186 ms
[OGL LOG] sort_host_mtx : 110 ms
[OGL LOG] init_preconditioner : 0 ms
[OGL LOG] solve : 1071 ms
nonecudaGKOCG:  Solving for p, Initial residual = 0.777277, Final residual = 9.88831e-05, No Iterations 783
linear solve p 2077210
time step continuity errors : sum local = 7.14699e-08, global = 4.34124e-21, cumulative = 2.02245e-20
ExecutionTime = 21.58 s  ClockTime = 22 s

Time = 0.002

Courant Number mean: 0.0560717 max: 0.805494
DILUPBiCGStab:  Solving for Ux, Initial residual = 0.138283, Final residual = 0.00319035, No Iterations 5
DILUPBiCGStab:  Solving for Uy, Initial residual = 0.430536, Final residual = 0.00909563, No Iterations 5
DILUPBiCGStab:  Solving for Uz, Initial residual = 0.990289, Final residual = 0.0225809, No Iterations 5
linear solve U 831310
[OGL LOG] init_host_sparsity_pattern : 424 ms
[OGL LOG] matrix not stored update host matrix
[OGL LOG] update_host_mtx : 222 ms
[OGL LOG] matrix is not yet sorted, sorting host matrix
[OGL LOG] sort_host_mtx_sparsity_pattern : 181 ms
[OGL LOG] sort_host_mtx : 116 ms
[OGL LOG] init_preconditioner : 0 ms
[OGL LOG] solve : 1080 ms
nonecudaGKOCG:  Solving for p, Initial residual = 0.7998, Final residual = 9.61297e-05, No Iterations 779
linear solve p 2083170
time step continuity errors : sum local = 9.83647e-08, global = 7.13271e-21, cumulative = 2.73572e-20
[OGL LOG] init_host_sparsity_pattern : 424 ms
[OGL LOG] matrix not stored update host matrix
[OGL LOG] update_host_mtx : 222 ms
[OGL LOG] matrix is not yet sorted, sorting host matrix
[OGL LOG] sort_host_mtx_sparsity_pattern : 170 ms
[OGL LOG] sort_host_mtx : 117 ms
[OGL LOG] init_preconditioner : 0 ms
[OGL LOG] solve : 1067 ms
nonecudaGKOCG:  Solving for p, Initial residual = 0.740752, Final residual = 9.45074e-05, No Iterations 777
linear solve p 2059630
time step continuity errors : sum local = 9.87053e-08, global = -1.03635e-21, cumulative = 2.63209e-20
ExecutionTime = 27.13 s  ClockTime = 27 s

Time = 0.003

Courant Number mean: 0.0852775 max: 0.943639
DILUPBiCGStab:  Solving for Ux, Initial residual = 0.0649266, Final residual = 0.00112815, No Iterations 5
DILUPBiCGStab:  Solving for Uy, Initial residual = 0.225984, Final residual = 0.00296622, No Iterations 5
DILUPBiCGStab:  Solving for Uz, Initial residual = 0.792339, Final residual = 0.0162125, No Iterations 5
linear solve U 834214
[OGL LOG] init_host_sparsity_pattern : 425 ms
[OGL LOG] matrix not stored update host matrix
[OGL LOG] update_host_mtx : 222 ms
[OGL LOG] matrix is not yet sorted, sorting host matrix
[OGL LOG] sort_host_mtx_sparsity_pattern : 187 ms
[OGL LOG] sort_host_mtx : 117 ms
[OGL LOG] init_preconditioner : 0 ms
[OGL LOG] solve : 647 ms
nonecudaGKOCG:  Solving for p, Initial residual = 0.832981, Final residual = 9.92388e-05, No Iterations 464
linear solve p 1660817
time step continuity errors : sum local = 9.62843e-08, global = -5.26213e-21, cumulative = 2.10587e-20
[OGL LOG] init_host_sparsity_pattern : 424 ms
[OGL LOG] matrix not stored update host matrix
[OGL LOG] update_host_mtx : 222 ms
[OGL LOG] matrix is not yet sorted, sorting host matrix
[OGL LOG] sort_host_mtx_sparsity_pattern : 167 ms
[OGL LOG] sort_host_mtx : 116 ms
[OGL LOG] init_preconditioner : 0 ms
[OGL LOG] solve : 627 ms
nonecudaGKOCG:  Solving for p, Initial residual = 0.802274, Final residual = 9.74541e-05, No Iterations 463
linear solve p 1617497
time step continuity errors : sum local = 9.18797e-08, global = -2.08525e-21, cumulative = 1.89735e-20
ExecutionTime = 31.81 s  ClockTime = 32 s

Time = 0.004

Courant Number mean: 0.098204 max: 0.926367
DILUPBiCGStab:  Solving for Ux, Initial residual = 0.0388057, Final residual = 0.000835244, No Iterations 5
DILUPBiCGStab:  Solving for Uy, Initial residual = 0.168213, Final residual = 0.00318242, No Iterations 5
DILUPBiCGStab:  Solving for Uz, Initial residual = 0.629426, Final residual = 0.0109808, No Iterations 5
linear solve U 837051
[OGL LOG] init_host_sparsity_pattern : 424 ms
[OGL LOG] matrix not stored update host matrix
[OGL LOG] update_host_mtx : 221 ms
[OGL LOG] matrix is not yet sorted, sorting host matrix
[OGL LOG] sort_host_mtx_sparsity_pattern : 169 ms
[OGL LOG] sort_host_mtx : 113 ms
[OGL LOG] init_preconditioner : 0 ms
[OGL LOG] solve : 651 ms
nonecudaGKOCG:  Solving for p, Initial residual = 0.749448, Final residual = 9.57293e-05, No Iterations 463
linear solve p 1640703
time step continuity errors : sum local = 8.96177e-08, global = -4.18698e-21, cumulative = 1.47865e-20
[OGL LOG] init_host_sparsity_pattern : 424 ms
[OGL LOG] matrix not stored update host matrix
[OGL LOG] update_host_mtx : 222 ms
[OGL LOG] matrix is not yet sorted, sorting host matrix
[OGL LOG] sort_host_mtx_sparsity_pattern : 174 ms
[OGL LOG] sort_host_mtx : 111 ms
[OGL LOG] init_preconditioner : 0 ms
[OGL LOG] solve : 581 ms
nonecudaGKOCG:  Solving for p, Initial residual = 0.685121, Final residual = 9.99805e-05, No Iterations 425
linear solve p 1572626
time step continuity errors : sum local = 9.18452e-08, global = 4.6359e-21, cumulative = 1.94224e-20
ExecutionTime = 36.43 s  ClockTime = 36 s

Time = 0.005

Courant Number mean: 0.110594 max: 0.944582
DILUPBiCGStab:  Solving for Ux, Initial residual = 0.0304961, Final residual = 0.000612166, No Iterations 5
DILUPBiCGStab:  Solving for Uy, Initial residual = 0.0983616, Final residual = 0.00202356, No Iterations 5
DILUPBiCGStab:  Solving for Uz, Initial residual = 0.588973, Final residual = 0.00952845, No Iterations 5
linear solve U 828627
[OGL LOG] init_host_sparsity_pattern : 424 ms
[OGL LOG] matrix not stored update host matrix
[OGL LOG] update_host_mtx : 221 ms
[OGL LOG] matrix is not yet sorted, sorting host matrix
[OGL LOG] sort_host_mtx_sparsity_pattern : 181 ms
[OGL LOG] sort_host_mtx : 112 ms
[OGL LOG] init_preconditioner : 0 ms
[OGL LOG] solve : 579 ms
nonecudaGKOCG:  Solving for p, Initial residual = 0.757795, Final residual = 9.75148e-05, No Iterations 417
linear solve p 1580276
time step continuity errors : sum local = 7.53647e-08, global = -3.02974e-21, cumulative = 1.63927e-20
[OGL LOG] init_host_sparsity_pattern : 423 ms
[OGL LOG] matrix not stored update host matrix
[OGL LOG] update_host_mtx : 222 ms
[OGL LOG] matrix is not yet sorted, sorting host matrix
[OGL LOG] sort_host_mtx_sparsity_pattern : 181 ms
[OGL LOG] sort_host_mtx : 112 ms
[OGL LOG] init_preconditioner : 0 ms
[OGL LOG] solve : 568 ms
nonecudaGKOCG:  Solving for p, Initial residual = 0.709854, Final residual = 9.95798e-05, No Iterations 415
linear solve p 1567366
time step continuity errors : sum local = 7.40374e-08, global = -1.3162e-20, cumulative = 3.23065e-21
ExecutionTime = 40.98 s  ClockTime = 41 s

Time = 0.006

Courant Number mean: 0.118979 max: 0.944965
DILUPBiCGStab:  Solving for Ux, Initial residual = 0.0203435, Final residual = 0.000433559, No Iterations 5
DILUPBiCGStab:  Solving for Uy, Initial residual = 0.0819496, Final residual = 0.00163634, No Iterations 5
DILUPBiCGStab:  Solving for Uz, Initial residual = 0.435508, Final residual = 0.007003, No Iterations 5
linear solve U 833628
[OGL LOG] init_host_sparsity_pattern : 423 ms
[OGL LOG] matrix not stored update host matrix
[OGL LOG] update_host_mtx : 221 ms
[OGL LOG] matrix is not yet sorted, sorting host matrix
[OGL LOG] sort_host_mtx_sparsity_pattern : 187 ms
[OGL LOG] sort_host_mtx : 113 ms
[OGL LOG] init_preconditioner : 0 ms
[OGL LOG] solve : 588 ms
nonecudaGKOCG:  Solving for p, Initial residual = 0.661676, Final residual = 9.8729e-05, No Iterations 414
linear solve p 1596014
time step continuity errors : sum local = 7.17547e-08, global = -4.79543e-21, cumulative = -1.56478e-21
[OGL LOG] init_host_sparsity_pattern : 423 ms
[OGL LOG] matrix not stored update host matrix
[OGL LOG] update_host_mtx : 222 ms
[OGL LOG] matrix is not yet sorted, sorting host matrix
[OGL LOG] sort_host_mtx_sparsity_pattern : 191 ms
[OGL LOG] sort_host_mtx : 114 ms
[OGL LOG] init_preconditioner : 0 ms
[OGL LOG] solve : 560 ms
nonecudaGKOCG:  Solving for p, Initial residual = 0.600805, Final residual = 9.88434e-05, No Iterations 411
linear solve p 1569675
time step continuity errors : sum local = 7.04543e-08, global = 6.92539e-21, cumulative = 5.36061e-21
ExecutionTime = 45.54 s  ClockTime = 46 s

Time = 0.007

Courant Number mean: 0.12661 max: 0.947975
DILUPBiCGStab:  Solving for Ux, Initial residual = 0.0176481, Final residual = 0.000355204, No Iterations 5
DILUPBiCGStab:  Solving for Uy, Initial residual = 0.055722, Final residual = 0.00126654, No Iterations 5
DILUPBiCGStab:  Solving for Uz, Initial residual = 0.380335, Final residual = 0.005872, No Iterations 5
linear solve U 831555
[OGL LOG] init_host_sparsity_pattern : 424 ms
[OGL LOG] matrix not stored update host matrix
[OGL LOG] update_host_mtx : 222 ms
[OGL LOG] matrix is not yet sorted, sorting host matrix
[OGL LOG] sort_host_mtx_sparsity_pattern : 197 ms
[OGL LOG] sort_host_mtx : 115 ms
[OGL LOG] init_preconditioner : 0 ms
[OGL LOG] solve : 519 ms
nonecudaGKOCG:  Solving for p, Initial residual = 0.659781, Final residual = 9.92233e-05, No Iterations 375
linear solve p 1539694
time step continuity errors : sum local = 5.84106e-08, global = 1.10031e-20, cumulative = 1.63637e-20
[OGL LOG] init_host_sparsity_pattern : 424 ms
[OGL LOG] matrix not stored update host matrix
[OGL LOG] update_host_mtx : 222 ms
[OGL LOG] matrix is not yet sorted, sorting host matrix
[OGL LOG] sort_host_mtx_sparsity_pattern : 189 ms
[OGL LOG] sort_host_mtx : 113 ms
[OGL LOG] init_preconditioner : 0 ms
[OGL LOG] solve : 514 ms
nonecudaGKOCG:  Solving for p, Initial residual = 0.602217, Final residual = 9.79745e-05, No Iterations 374
linear solve p 1522932
time step continuity errors : sum local = 5.74054e-08, global = 1.84578e-20, cumulative = 3.48215e-20
ExecutionTime = 50.01 s  ClockTime = 50 s

Time = 0.008

Courant Number mean: 0.132627 max: 0.951942
DILUPBiCGStab:  Solving for Ux, Initial residual = 0.0129784, Final residual = 0.000262089, No Iterations 5
DILUPBiCGStab:  Solving for Uy, Initial residual = 0.0477263, Final residual = 0.00100305, No Iterations 5
DILUPBiCGStab:  Solving for Uz, Initial residual = 0.287305, Final residual = 0.00449058, No Iterations 5
linear solve U 834420
[OGL LOG] init_host_sparsity_pattern : 424 ms
[OGL LOG] matrix not stored update host matrix
[OGL LOG] update_host_mtx : 222 ms
[OGL LOG] matrix is not yet sorted, sorting host matrix
[OGL LOG] sort_host_mtx_sparsity_pattern : 172 ms
[OGL LOG] sort_host_mtx : 106 ms
[OGL LOG] init_preconditioner : 0 ms
[OGL LOG] solve : 560 ms
nonecudaGKOCG:  Solving for p, Initial residual = 0.567225, Final residual = 9.89492e-05, No Iterations 402
linear solve p 1546930
time step continuity errors : sum local = 6.10521e-08, global = -9.34206e-21, cumulative = 2.54794e-20
[OGL LOG] init_host_sparsity_pattern : 423 ms
[OGL LOG] matrix not stored update host matrix
[OGL LOG] update_host_mtx : 222 ms
[OGL LOG] matrix is not yet sorted, sorting host matrix
[OGL LOG] sort_host_mtx_sparsity_pattern : 194 ms
[OGL LOG] sort_host_mtx : 110 ms
[OGL LOG] init_preconditioner : 0 ms
[OGL LOG] solve : 518 ms
nonecudaGKOCG:  Solving for p, Initial residual = 0.509491, Final residual = 9.86763e-05, No Iterations 382
linear solve p 1527549
time step continuity errors : sum local = 5.76089e-08, global = 4.54035e-21, cumulative = 3.00198e-20
ExecutionTime = 54.5 s  ClockTime = 55 s

Time = 0.009

Courant Number mean: 0.138049 max: 0.953444
DILUPBiCGStab:  Solving for Ux, Initial residual = 0.0114572, Final residual = 0.000213912, No Iterations 5
DILUPBiCGStab:  Solving for Uy, Initial residual = 0.0357582, Final residual = 0.000794876, No Iterations 5
DILUPBiCGStab:  Solving for Uz, Initial residual = 0.245541, Final residual = 0.00385253, No Iterations 5
linear solve U 834996
[OGL LOG] init_host_sparsity_pattern : 424 ms
[OGL LOG] matrix not stored update host matrix
[OGL LOG] update_host_mtx : 221 ms
[OGL LOG] matrix is not yet sorted, sorting host matrix
[OGL LOG] sort_host_mtx_sparsity_pattern : 181 ms
[OGL LOG] sort_host_mtx : 113 ms
[OGL LOG] init_preconditioner : 0 ms
[OGL LOG] solve : 541 ms
nonecudaGKOCG:  Solving for p, Initial residual = 0.555995, Final residual = 9.80384e-05, No Iterations 381
linear solve p 1543764
time step continuity errors : sum local = 5.27163e-08, global = -2.62813e-21, cumulative = 2.73917e-20
[OGL LOG] init_host_sparsity_pattern : 423 ms
[OGL LOG] matrix not stored update host matrix
[OGL LOG] update_host_mtx : 222 ms
[OGL LOG] matrix is not yet sorted, sorting host matrix
[OGL LOG] sort_host_mtx_sparsity_pattern : 188 ms
[OGL LOG] sort_host_mtx : 120 ms
[OGL LOG] init_preconditioner : 0 ms
[OGL LOG] solve : 512 ms
nonecudaGKOCG:  Solving for p, Initial residual = 0.496565, Final residual = 9.84331e-05, No Iterations 375
linear solve p 1525709
time step continuity errors : sum local = 4.86213e-08, global = 1.57439e-20, cumulative = 4.31356e-20
ExecutionTime = 58.97 s  ClockTime = 59 s

Time = 0.01

Courant Number mean: 0.142642 max: 0.955917
DILUPBiCGStab:  Solving for Ux, Initial residual = 0.00901444, Final residual = 0.000162867, No Iterations 5
DILUPBiCGStab:  Solving for Uy, Initial residual = 0.0309002, Final residual = 0.000636389, No Iterations 5
DILUPBiCGStab:  Solving for Uz, Initial residual = 0.19121, Final residual = 0.00313481, No Iterations 5
linear solve U 836955
[OGL LOG] init_host_sparsity_pattern : 424 ms
[OGL LOG] matrix not stored update host matrix
[OGL LOG] update_host_mtx : 222 ms
[OGL LOG] matrix is not yet sorted, sorting host matrix
[OGL LOG] sort_host_mtx_sparsity_pattern : 182 ms
[OGL LOG] sort_host_mtx : 113 ms
[OGL LOG] init_preconditioner : 0 ms
[OGL LOG] solve : 1038 ms
nonecudaGKOCG:  Solving for p, Initial residual = 0.477448, Final residual = 9.67124e-05, No Iterations 759
linear solve p 2040810
time step continuity errors : sum local = 4.6045e-08, global = -1.45959e-20, cumulative = 2.85396e-20
[OGL LOG] init_host_sparsity_pattern : 423 ms
[OGL LOG] matrix not stored update host matrix
[OGL LOG] update_host_mtx : 222 ms
[OGL LOG] matrix is not yet sorted, sorting host matrix
[OGL LOG] sort_host_mtx_sparsity_pattern : 182 ms
[OGL LOG] sort_host_mtx : 113 ms
[OGL LOG] init_preconditioner : 0 ms
[OGL LOG] solve : 1049 ms
nonecudaGKOCG:  Solving for p, Initial residual = 0.424625, Final residual = 9.87464e-05, No Iterations 758
linear solve p 2049528
time step continuity errors : sum local = 4.68552e-08, global = 1.01373e-20, cumulative = 3.86769e-20
ExecutionTime = 64.47 s  ClockTime = 65 s

End

