/*---------------------------------------------------------------------------*\
  =========                 |
  \\      /  F ield         | OpenFOAM: The Open Source CFD Toolbox
   \\    /   O peration     | Website:  https://openfoam.org
    \\  /    A nd           | Version:  8
     \\/     M anipulation  |
\*---------------------------------------------------------------------------*/
Build  : 8-ef60d22ea792
Exec   : icoFoam
Date   : Jul 29 2021
Time   : 05:33:31
Host   : "nla-gpu2.ianm.kit.edu"
PID    : 1903868
I/O    : uncollated
Case   : /home/greole/code/OBR/lidDrivenCavity3D/Variation_mesh/100/Variation_matrix_solver/CG_DIC_Serial/base
nProcs : 1
sigFpe : Enabling floating point exception trapping (FOAM_SIGFPE).
fileModificationChecking : Monitoring run-time modified files using timeStampMaster (fileModificationSkew 10)
allowSystemOperations : Allowing user-supplied system call operations

// * * * * * * * * * * * * * * * * * * * * * * * * * * * * * * * * * * * * * //
Create time

Create mesh for time = 0

Reading transportProperties

Reading field p

Reading field U

Reading/calculating face flux field phi


Starting time loop

Time = 0.001

Courant Number mean: 0 max: 0
DILUPBiCGStab:  Solving for Ux, Initial residual = 1, Final residual = 0.00717233, No Iterations 5
DILUPBiCGStab:  Solving for Uy:  solution singularity
DILUPBiCGStab:  Solving for Uz:  solution singularity
linear solve U 421283
DICPCG:  Solving for p, Initial residual = 1, Final residual = 9.60861e-05, No Iterations 241
linear solve p 5447940
time step continuity errors : sum local = 5.50434e-08, global = 9.91225e-21, cumulative = 9.91225e-21
DICPCG:  Solving for p, Initial residual = 0.777281, Final residual = 8.57522e-05, No Iterations 239
linear solve p 5241422
time step continuity errors : sum local = 6.19789e-08, global = -5.98082e-21, cumulative = 3.93142e-21
ExecutionTime = 15.73 s  ClockTime = 16 s

Time = 0.002

Courant Number mean: 0.0560717 max: 0.805494
DILUPBiCGStab:  Solving for Ux, Initial residual = 0.138283, Final residual = 0.00319034, No Iterations 5
DILUPBiCGStab:  Solving for Uy, Initial residual = 0.430537, Final residual = 0.00909568, No Iterations 5
DILUPBiCGStab:  Solving for Uz, Initial residual = 0.990272, Final residual = 0.0225823, No Iterations 5
linear solve U 825611
DICPCG:  Solving for p, Initial residual = 0.799824, Final residual = 8.98788e-05, No Iterations 247
linear solve p 5392682
time step continuity errors : sum local = 9.19796e-08, global = -1.48075e-20, cumulative = -1.08761e-20
DICPCG:  Solving for p, Initial residual = 0.740783, Final residual = 8.14146e-05, No Iterations 247
linear solve p 5401695
time step continuity errors : sum local = 8.50403e-08, global = 3.08022e-21, cumulative = -7.79589e-21
ExecutionTime = 27.78 s  ClockTime = 28 s

Time = 0.003

Courant Number mean: 0.0852774 max: 0.943645
DILUPBiCGStab:  Solving for Ux, Initial residual = 0.0649253, Final residual = 0.00112815, No Iterations 5
DILUPBiCGStab:  Solving for Uy, Initial residual = 0.22597, Final residual = 0.00296598, No Iterations 5
DILUPBiCGStab:  Solving for Uz, Initial residual = 0.792333, Final residual = 0.0162233, No Iterations 5
linear solve U 815385
DICPCG:  Solving for p, Initial residual = 0.832919, Final residual = 9.62262e-05, No Iterations 137
linear solve p 3022311
time step continuity errors : sum local = 9.38212e-08, global = -2.35458e-21, cumulative = -1.01505e-20
DICPCG:  Solving for p, Initial residual = 0.802203, Final residual = 9.9338e-05, No Iterations 136
linear solve p 3029176
time step continuity errors : sum local = 9.37588e-08, global = -1.18091e-20, cumulative = -2.19596e-20
ExecutionTime = 35.1 s  ClockTime = 35 s

Time = 0.004

Courant Number mean: 0.098204 max: 0.926357
DILUPBiCGStab:  Solving for Ux, Initial residual = 0.038808, Final residual = 0.000835207, No Iterations 5
DILUPBiCGStab:  Solving for Uy, Initial residual = 0.168197, Final residual = 0.00318272, No Iterations 5
DILUPBiCGStab:  Solving for Uz, Initial residual = 0.629046, Final residual = 0.0109863, No Iterations 5
linear solve U 809837
DICPCG:  Solving for p, Initial residual = 0.749608, Final residual = 9.0381e-05, No Iterations 136
linear solve p 2993595
time step continuity errors : sum local = 8.37284e-08, global = 1.0847e-21, cumulative = -2.08749e-20
DICPCG:  Solving for p, Initial residual = 0.68529, Final residual = 9.21459e-05, No Iterations 135
linear solve p 3003131
time step continuity errors : sum local = 8.44707e-08, global = -5.39659e-22, cumulative = -2.14146e-20
ExecutionTime = 42.36 s  ClockTime = 43 s

Time = 0.005

Courant Number mean: 0.110594 max: 0.94457
DILUPBiCGStab:  Solving for Ux, Initial residual = 0.030502, Final residual = 0.0006123, No Iterations 5
DILUPBiCGStab:  Solving for Uy, Initial residual = 0.0983341, Final residual = 0.00202297, No Iterations 5
DILUPBiCGStab:  Solving for Uz, Initial residual = 0.589326, Final residual = 0.00954063, No Iterations 5
linear solve U 815752
DICPCG:  Solving for p, Initial residual = 0.757954, Final residual = 9.82652e-05, No Iterations 122
linear solve p 2724684
time step continuity errors : sum local = 7.8896e-08, global = 5.77773e-21, cumulative = -1.56368e-20
DICPCG:  Solving for p, Initial residual = 0.710021, Final residual = 9.8578e-05, No Iterations 118
linear solve p 2605038
time step continuity errors : sum local = 7.42663e-08, global = -3.37079e-21, cumulative = -1.90076e-20
ExecutionTime = 48.95 s  ClockTime = 49 s

Time = 0.006

Courant Number mean: 0.118979 max: 0.944962
DILUPBiCGStab:  Solving for Ux, Initial residual = 0.0203415, Final residual = 0.000433197, No Iterations 5
DILUPBiCGStab:  Solving for Uy, Initial residual = 0.0819426, Final residual = 0.00163677, No Iterations 5
DILUPBiCGStab:  Solving for Uz, Initial residual = 0.437732, Final residual = 0.00713472, No Iterations 5
linear solve U 828023
DICPCG:  Solving for p, Initial residual = 0.661718, Final residual = 9.85061e-05, No Iterations 119
linear solve p 2644071
time step continuity errors : sum local = 7.24883e-08, global = 1.10573e-20, cumulative = -7.95029e-21
DICPCG:  Solving for p, Initial residual = 0.600817, Final residual = 9.14875e-05, No Iterations 118
linear solve p 2619535
time step continuity errors : sum local = 6.45519e-08, global = 7.45199e-21, cumulative = -4.98298e-22
ExecutionTime = 55.51 s  ClockTime = 56 s

Time = 0.007

Courant Number mean: 0.126611 max: 0.947967
DILUPBiCGStab:  Solving for Ux, Initial residual = 0.0176696, Final residual = 0.000355864, No Iterations 5
DILUPBiCGStab:  Solving for Uy, Initial residual = 0.0556741, Final residual = 0.0012647, No Iterations 5
DILUPBiCGStab:  Solving for Uz, Initial residual = 0.383449, Final residual = 0.00611922, No Iterations 5
linear solve U 810521
DICPCG:  Solving for p, Initial residual = 0.659707, Final residual = 8.69213e-05, No Iterations 246
linear solve p 5376253
time step continuity errors : sum local = 5.06315e-08, global = 2.486e-21, cumulative = 1.98771e-21
DICPCG:  Solving for p, Initial residual = 0.602037, Final residual = 9.71901e-05, No Iterations 245
linear solve p 5410364
time step continuity errors : sum local = 5.62278e-08, global = -5.49569e-21, cumulative = -3.50798e-21
ExecutionTime = 67.53 s  ClockTime = 68 s

Time = 0.008

Courant Number mean: 0.132629 max: 0.951958
DILUPBiCGStab:  Solving for Ux, Initial residual = 0.0129853, Final residual = 0.000261843, No Iterations 5
DILUPBiCGStab:  Solving for Uy, Initial residual = 0.0477083, Final residual = 0.00100386, No Iterations 5
DILUPBiCGStab:  Solving for Uz, Initial residual = 0.289038, Final residual = 0.00451906, No Iterations 5
linear solve U 816984
DICPCG:  Solving for p, Initial residual = 0.567116, Final residual = 9.68019e-05, No Iterations 123
linear solve p 2736711
time step continuity errors : sum local = 5.97406e-08, global = 4.72698e-21, cumulative = 1.219e-21
DICPCG:  Solving for p, Initial residual = 0.50931, Final residual = 9.81751e-05, No Iterations 118
linear solve p 2591817
time step continuity errors : sum local = 5.69932e-08, global = 7.92955e-22, cumulative = 2.01195e-21
ExecutionTime = 74.12 s  ClockTime = 74 s

Time = 0.009

Courant Number mean: 0.138049 max: 0.953441
DILUPBiCGStab:  Solving for Ux, Initial residual = 0.0114768, Final residual = 0.00021447, No Iterations 5
DILUPBiCGStab:  Solving for Uy, Initial residual = 0.0357098, Final residual = 0.000793625, No Iterations 5
DILUPBiCGStab:  Solving for Uz, Initial residual = 0.247092, Final residual = 0.0039777, No Iterations 5
linear solve U 816302
DICPCG:  Solving for p, Initial residual = 0.556119, Final residual = 9.11633e-05, No Iterations 244
linear solve p 5364110
time step continuity errors : sum local = 4.43464e-08, global = 2.99655e-21, cumulative = 5.0085e-21
DICPCG:  Solving for p, Initial residual = 0.496593, Final residual = 8.45987e-05, No Iterations 244
linear solve p 5392769
time step continuity errors : sum local = 4.11028e-08, global = 1.1222e-20, cumulative = 1.62305e-20
ExecutionTime = 86.11 s  ClockTime = 87 s

Time = 0.01

Courant Number mean: 0.142643 max: 0.95593
DILUPBiCGStab:  Solving for Ux, Initial residual = 0.0090026, Final residual = 0.000162392, No Iterations 5
DILUPBiCGStab:  Solving for Uy, Initial residual = 0.0309118, Final residual = 0.000637288, No Iterations 5
DILUPBiCGStab:  Solving for Uz, Initial residual = 0.191558, Final residual = 0.00310948, No Iterations 5
linear solve U 816033
DICPCG:  Solving for p, Initial residual = 0.477342, Final residual = 8.99754e-05, No Iterations 124
linear solve p 2744258
time step continuity errors : sum local = 4.91581e-08, global = 2.03367e-21, cumulative = 1.82642e-20
DICPCG:  Solving for p, Initial residual = 0.424531, Final residual = 9.59381e-05, No Iterations 122
linear solve p 2723384
time step continuity errors : sum local = 4.77809e-08, global = -5.33013e-21, cumulative = 1.2934e-20
ExecutionTime = 92.85 s  ClockTime = 93 s

End

