/*---------------------------------------------------------------------------*\
  =========                 |
  \\      /  F ield         | OpenFOAM: The Open Source CFD Toolbox
   \\    /   O peration     | Website:  https://openfoam.org
    \\  /    A nd           | Version:  8
     \\/     M anipulation  |
\*---------------------------------------------------------------------------*/
Build  : 8-14d69e1ee166
Exec   : icoFoam
Date   : Jul 28 2021
Time   : 15:56:44
Host   : "guyot.icl.utk.edu"
PID    : 226157
I/O    : uncollated
Case   : /home/greole/code/OBR/lidDrivenCavity3D/Variation_mesh/95/Variation_matrix_solver/BiCGStab_NoPrecond_Serial/base
nProcs : 1
sigFpe : Enabling floating point exception trapping (FOAM_SIGFPE).
fileModificationChecking : Monitoring run-time modified files using timeStampMaster (fileModificationSkew 10)
allowSystemOperations : Allowing user-supplied system call operations

// * * * * * * * * * * * * * * * * * * * * * * * * * * * * * * * * * * * * * //
Create time

Create mesh for time = 0

Reading transportProperties

Reading field p

Reading field U

Reading/calculating face flux field phi


Starting time loop

Time = 0.001

Courant Number mean: 0 max: 0
DILUPBiCGStab:  Solving for Ux, Initial residual = 1, Final residual = 0.00597808, No Iterations 5
DILUPBiCGStab:  Solving for Uy:  solution singularity
DILUPBiCGStab:  Solving for Uz:  solution singularity
linear solve U 333584
nonePBiCGStab:  Solving for p, Initial residual = 1, Final residual = 8.44042e-05, No Iterations 621
linear solve p 12630907
time step continuity errors : sum local = 9.74605e-08, global = 7.49002e-21, cumulative = 7.49002e-21
nonePBiCGStab:  Solving for p, Initial residual = 0.770967, Final residual = 1.71032e-05, No Iterations 557
linear solve p 11497972
time step continuity errors : sum local = 1.4938e-08, global = 3.35692e-21, cumulative = 1.08469e-20
ExecutionTime = 28.35 s  ClockTime = 28 s

Time = 0.002

Courant Number mean: 0.0534418 max: 0.757475
DILUPBiCGStab:  Solving for Ux, Initial residual = 0.140268, Final residual = 0.00255394, No Iterations 5
DILUPBiCGStab:  Solving for Uy, Initial residual = 0.41959, Final residual = 0.00695597, No Iterations 5
DILUPBiCGStab:  Solving for Uz, Initial residual = 0.9886, Final residual = 0.018001, No Iterations 5
linear solve U 661769
nonePBiCGStab:  Solving for p, Initial residual = 0.783753, Final residual = 9.3029e-05, No Iterations 605
linear solve p 12314459
time step continuity errors : sum local = 1.84497e-07, global = 4.87132e-21, cumulative = 1.57183e-20
nonePBiCGStab:  Solving for p, Initial residual = 0.722968, Final residual = 7.99739e-05, No Iterations 570
linear solve p 11645697
time step continuity errors : sum local = 1.61878e-07, global = -1.21451e-20, cumulative = 3.57314e-21
ExecutionTime = 53.34 s  ClockTime = 53 s

Time = 0.003

Courant Number mean: 0.0810269 max: 0.886823
DILUPBiCGStab:  Solving for Ux, Initial residual = 0.0624709, Final residual = 0.000856055, No Iterations 5
DILUPBiCGStab:  Solving for Uy, Initial residual = 0.204917, Final residual = 0.00245681, No Iterations 5
DILUPBiCGStab:  Solving for Uz, Initial residual = 0.778922, Final residual = 0.0144023, No Iterations 5
linear solve U 661426
nonePBiCGStab:  Solving for p, Initial residual = 0.810047, Final residual = 9.75766e-05, No Iterations 564
linear solve p 11463269
time step continuity errors : sum local = 1.42625e-07, global = -1.25362e-20, cumulative = -8.96309e-21
nonePBiCGStab:  Solving for p, Initial residual = 0.775324, Final residual = 9.20951e-05, No Iterations 578
linear solve p 11820174
time step continuity errors : sum local = 1.55057e-07, global = -5.26898e-21, cumulative = -1.42321e-20
ExecutionTime = 77.68 s  ClockTime = 78 s

Time = 0.004

Courant Number mean: 0.0936672 max: 0.877124
DILUPBiCGStab:  Solving for Ux, Initial residual = 0.036731, Final residual = 0.000641519, No Iterations 5
DILUPBiCGStab:  Solving for Uy, Initial residual = 0.149659, Final residual = 0.00224634, No Iterations 5
DILUPBiCGStab:  Solving for Uz, Initial residual = 0.612536, Final residual = 0.0101094, No Iterations 5
linear solve U 661857
nonePBiCGStab:  Solving for p, Initial residual = 0.708205, Final residual = 9.18738e-05, No Iterations 546
linear solve p 11135038
time step continuity errors : sum local = 1.47907e-07, global = -1.21895e-20, cumulative = -2.64216e-20
nonePBiCGStab:  Solving for p, Initial residual = 0.640541, Final residual = 9.92317e-05, No Iterations 578
linear solve p 11853999
time step continuity errors : sum local = 8.82727e-08, global = 2.06023e-22, cumulative = -2.62156e-20
ExecutionTime = 101.7 s  ClockTime = 102 s

Time = 0.005

Courant Number mean: 0.105326 max: 0.889802
DILUPBiCGStab:  Solving for Ux, Initial residual = 0.0279719, Final residual = 0.00042705, No Iterations 5
DILUPBiCGStab:  Solving for Uy, Initial residual = 0.0854158, Final residual = 0.00147716, No Iterations 5
DILUPBiCGStab:  Solving for Uz, Initial residual = 0.552086, Final residual = 0.00886645, No Iterations 5
linear solve U 663156
nonePBiCGStab:  Solving for p, Initial residual = 0.704408, Final residual = 9.7244e-05, No Iterations 566
linear solve p 11439465
time step continuity errors : sum local = 7.50589e-08, global = 4.67638e-21, cumulative = -2.15392e-20
nonePBiCGStab:  Solving for p, Initial residual = 0.650804, Final residual = 8.64315e-05, No Iterations 564
linear solve p 11541133
time step continuity errors : sum local = 6.83617e-08, global = -5.29492e-21, cumulative = -2.68341e-20
ExecutionTime = 125.72 s  ClockTime = 126 s

Time = 0.006

Courant Number mean: 0.113449 max: 0.895127
DILUPBiCGStab:  Solving for Ux, Initial residual = 0.0184658, Final residual = 0.000292136, No Iterations 5
DILUPBiCGStab:  Solving for Uy, Initial residual = 0.0695943, Final residual = 0.00106174, No Iterations 5
DILUPBiCGStab:  Solving for Uz, Initial residual = 0.413307, Final residual = 0.0063373, No Iterations 5
linear solve U 661882
nonePBiCGStab:  Solving for p, Initial residual = 0.590618, Final residual = 9.95722e-05, No Iterations 547
linear solve p 11104101
time step continuity errors : sum local = 8.92496e-08, global = -9.15622e-21, cumulative = -3.59903e-20
nonePBiCGStab:  Solving for p, Initial residual = 0.530332, Final residual = 3.05199e-05, No Iterations 566
linear solve p 11580026
time step continuity errors : sum local = 2.27208e-08, global = -1.68186e-21, cumulative = -3.76722e-20
ExecutionTime = 149.45 s  ClockTime = 150 s

Time = 0.007

Courant Number mean: 0.120626 max: 0.898349
DILUPBiCGStab:  Solving for Ux, Initial residual = 0.0156883, Final residual = 0.000221577, No Iterations 5
DILUPBiCGStab:  Solving for Uy, Initial residual = 0.0464707, Final residual = 0.000739737, No Iterations 5
DILUPBiCGStab:  Solving for Uz, Initial residual = 0.33168, Final residual = 0.00515154, No Iterations 5
linear solve U 663307
nonePBiCGStab:  Solving for p, Initial residual = 0.572092, Final residual = 8.20075e-05, No Iterations 484
linear solve p 9782162
time step continuity errors : sum local = 8.33105e-08, global = -2.97666e-20, cumulative = -6.74388e-20
nonePBiCGStab:  Solving for p, Initial residual = 0.513114, Final residual = 7.58224e-05, No Iterations 542
linear solve p 11084555
time step continuity errors : sum local = 4.95421e-08, global = -1.83885e-20, cumulative = -8.58273e-20
ExecutionTime = 171.36 s  ClockTime = 172 s

Time = 0.008

Courant Number mean: 0.126444 max: 0.902131
DILUPBiCGStab:  Solving for Ux, Initial residual = 0.0116262, Final residual = 0.000156965, No Iterations 5
DILUPBiCGStab:  Solving for Uy, Initial residual = 0.0389859, Final residual = 0.000566312, No Iterations 5
DILUPBiCGStab:  Solving for Uz, Initial residual = 0.245062, Final residual = 0.00346512, No Iterations 5
linear solve U 661353
nonePBiCGStab:  Solving for p, Initial residual = 0.471005, Final residual = 8.5619e-05, No Iterations 571
linear solve p 11602582
time step continuity errors : sum local = 4.91741e-08, global = 4.6006e-21, cumulative = -8.12267e-20
nonePBiCGStab:  Solving for p, Initial residual = 0.417111, Final residual = 9.68078e-05, No Iterations 542
linear solve p 11099001
time step continuity errors : sum local = 6.28093e-08, global = -5.23612e-22, cumulative = -8.17503e-20
ExecutionTime = 195.1 s  ClockTime = 195 s

Time = 0.009

Courant Number mean: 0.131575 max: 0.90379
DILUPBiCGStab:  Solving for Ux, Initial residual = 0.00997307, Final residual = 0.000119444, No Iterations 5
DILUPBiCGStab:  Solving for Uy, Initial residual = 0.0289352, Final residual = 0.000362923, No Iterations 5
DILUPBiCGStab:  Solving for Uz, Initial residual = 0.187274, Final residual = 0.00265738, No Iterations 5
linear solve U 664522
nonePBiCGStab:  Solving for p, Initial residual = 0.440784, Final residual = 9.7473e-05, No Iterations 483
linear solve p 9773578
time step continuity errors : sum local = 8.38789e-08, global = 1.87456e-20, cumulative = -6.30048e-20
nonePBiCGStab:  Solving for p, Initial residual = 0.387227, Final residual = 9.54773e-05, No Iterations 508
linear solve p 10379453
time step continuity errors : sum local = 8.2308e-08, global = -2.02444e-21, cumulative = -6.50292e-20
ExecutionTime = 216.29 s  ClockTime = 216 s

Time = 0.01

Courant Number mean: 0.135975 max: 0.906068
DILUPBiCGStab:  Solving for Ux, Initial residual = 0.00809275, Final residual = 9.13604e-05, No Iterations 5
DILUPBiCGStab:  Solving for Uy, Initial residual = 0.0249403, Final residual = 0.00030878, No Iterations 5
DILUPBiCGStab:  Solving for Uz, Initial residual = 0.164433, Final residual = 0.00284281, No Iterations 5
linear solve U 660655
nonePBiCGStab:  Solving for p, Initial residual = 0.367848, Final residual = 8.70621e-05, No Iterations 551
linear solve p 11178898
time step continuity errors : sum local = 3.99513e-08, global = -2.76328e-20, cumulative = -9.26621e-20
nonePBiCGStab:  Solving for p, Initial residual = 0.322442, Final residual = 9.99896e-05, No Iterations 552
linear solve p 11298359
time step continuity errors : sum local = 4.60116e-08, global = -1.06347e-20, cumulative = -1.03297e-19
ExecutionTime = 239.81 s  ClockTime = 240 s

End

