/*---------------------------------------------------------------------------*\
  =========                 |
  \\      /  F ield         | OpenFOAM: The Open Source CFD Toolbox
   \\    /   O peration     | Website:  https://openfoam.org
    \\  /    A nd           | Version:  8
     \\/     M anipulation  |
\*---------------------------------------------------------------------------*/
Build  : 8-ef60d22ea792
Exec   : icoFoam
Date   : Jul 29 2021
Time   : 04:18:40
Host   : "uc2n489.localdomain"
PID    : 3428249
I/O    : uncollated
Case   : /pfs/data5/home/kit/scc/nq7776/code/OBR/lidDrivenCavity3D/Variation_mesh/20/Variation_matrix_solver/IR_NoPrecond_CUDA/base
nProcs : 1
sigFpe : Enabling floating point exception trapping (FOAM_SIGFPE).
fileModificationChecking : Monitoring run-time modified files using timeStampMaster (fileModificationSkew 10)
allowSystemOperations : Allowing user-supplied system call operations

// * * * * * * * * * * * * * * * * * * * * * * * * * * * * * * * * * * * * * //
Create time

Create mesh for time = 0

Reading transportProperties

Reading field p

Reading field U

Reading/calculating face flux field phi


Starting time loop

Time = 0.001

Courant Number mean: 0 max: 0
DILUPBiCGStab:  Solving for Ux, Initial residual = 1, Final residual = 1.12203e-10, No Iterations 5
DILUPBiCGStab:  Solving for Uy:  solution singularity
DILUPBiCGStab:  Solving for Uz:  solution singularity
linear solve U 2834
[OGL LOG] init_host_sparsity_pattern : 2 ms
[OGL LOG] matrix not stored update host matrix
[OGL LOG] update_host_mtx : 1 ms
[OGL LOG] matrix is not yet sorted, compute sorting idxs
[OGL LOG] compute_sort : 50 ms
[OGL LOG] matrix is not yet sorted, sorting host matrix
[OGL LOG] sort_host_mtx_sparsity_pattern : 1 ms
[OGL LOG] sort_host_mtx : 0 ms
[OGL LOG] init_preconditioner : 0 ms
[OGL LOG] solve : 25 ms
nonecudaGKOIR:  Solving for p, Initial residual = 1, Final residual = 4.94102e-06, No Iterations 3
linear solve p 819702
time step continuity errors : sum local = 2.3744e-09, global = 5.47068e-21, cumulative = 5.47068e-21
[OGL LOG] init_host_sparsity_pattern : 2 ms
[OGL LOG] matrix not stored update host matrix
[OGL LOG] update_host_mtx : 1 ms
[OGL LOG] matrix is not yet sorted, sorting host matrix
[OGL LOG] sort_host_mtx_sparsity_pattern : 1 ms
[OGL LOG] sort_host_mtx : 0 ms
[OGL LOG] init_preconditioner : 0 ms
[OGL LOG] solve : 24 ms
nonecudaGKOIR:  Solving for p, Initial residual = 0.411883, Final residual = 1.19544e-06, No Iterations 3
linear solve p 30851
time step continuity errors : sum local = 9.60917e-10, global = -5.50707e-21, cumulative = -3.63943e-23
ExecutionTime = 0.89 s  ClockTime = 1 s

Time = 0.002

Courant Number mean: 0.00876192 max: 0.0682839
DILUPBiCGStab:  Solving for Ux, Initial residual = 0.225322, Final residual = 1.40293e-11, No Iterations 5
DILUPBiCGStab:  Solving for Uy, Initial residual = 0.289647, Final residual = 1.1924e-11, No Iterations 5
DILUPBiCGStab:  Solving for Uz, Initial residual = 0.825314, Final residual = 4.36517e-11, No Iterations 5
linear solve U 4612
[OGL LOG] init_host_sparsity_pattern : 2 ms
[OGL LOG] matrix not stored update host matrix
[OGL LOG] update_host_mtx : 0 ms
[OGL LOG] matrix is not yet sorted, sorting host matrix
[OGL LOG] sort_host_mtx_sparsity_pattern : 1 ms
[OGL LOG] sort_host_mtx : 0 ms
[OGL LOG] init_preconditioner : 0 ms
[OGL LOG] solve : 19 ms
nonecudaGKOIR:  Solving for p, Initial residual = 0.21275, Final residual = 4.03448e-05, No Iterations 2
linear solve p 25237
time step continuity errors : sum local = 3.05354e-08, global = 2.4429e-22, cumulative = 2.07895e-22
[OGL LOG] init_host_sparsity_pattern : 2 ms
[OGL LOG] matrix not stored update host matrix
[OGL LOG] update_host_mtx : 0 ms
[OGL LOG] matrix is not yet sorted, sorting host matrix
[OGL LOG] sort_host_mtx_sparsity_pattern : 1 ms
[OGL LOG] sort_host_mtx : 0 ms
[OGL LOG] init_preconditioner : 0 ms
[OGL LOG] solve : 19 ms
nonecudaGKOIR:  Solving for p, Initial residual = 0.123059, Final residual = 2.36428e-05, No Iterations 2
linear solve p 24982
time step continuity errors : sum local = 1.91456e-08, global = -6.09983e-21, cumulative = -5.89193e-21
ExecutionTime = 0.95 s  ClockTime = 1 s

Time = 0.003

Courant Number mean: 0.0142441 max: 0.104362
DILUPBiCGStab:  Solving for Ux, Initial residual = 0.102613, Final residual = 5.81889e-12, No Iterations 5
DILUPBiCGStab:  Solving for Uy, Initial residual = 0.135063, Final residual = 5.2036e-12, No Iterations 5
DILUPBiCGStab:  Solving for Uz, Initial residual = 0.293857, Final residual = 1.40364e-11, No Iterations 5
linear solve U 4728
[OGL LOG] init_host_sparsity_pattern : 2 ms
[OGL LOG] matrix not stored update host matrix
[OGL LOG] update_host_mtx : 0 ms
[OGL LOG] matrix is not yet sorted, sorting host matrix
[OGL LOG] sort_host_mtx_sparsity_pattern : 1 ms
[OGL LOG] sort_host_mtx : 0 ms
[OGL LOG] init_preconditioner : 0 ms
[OGL LOG] solve : 19 ms
nonecudaGKOIR:  Solving for p, Initial residual = 0.0914647, Final residual = 1.92597e-05, No Iterations 2
linear solve p 25013
time step continuity errors : sum local = 1.54877e-08, global = 1.04028e-20, cumulative = 4.51082e-21
[OGL LOG] init_host_sparsity_pattern : 2 ms
[OGL LOG] matrix not stored update host matrix
[OGL LOG] update_host_mtx : 0 ms
[OGL LOG] matrix is not yet sorted, sorting host matrix
[OGL LOG] sort_host_mtx_sparsity_pattern : 1 ms
[OGL LOG] sort_host_mtx : 0 ms
[OGL LOG] init_preconditioner : 0 ms
[OGL LOG] solve : 19 ms
nonecudaGKOIR:  Solving for p, Initial residual = 0.0548994, Final residual = 9.34292e-06, No Iterations 2
linear solve p 24899
time step continuity errors : sum local = 7.79308e-09, global = -1.40773e-20, cumulative = -9.56643e-21
ExecutionTime = 1.01 s  ClockTime = 1 s

Time = 0.004

Courant Number mean: 0.0178686 max: 0.123853
DILUPBiCGStab:  Solving for Ux, Initial residual = 0.0604269, Final residual = 2.83785e-12, No Iterations 5
DILUPBiCGStab:  Solving for Uy, Initial residual = 0.0809441, Final residual = 2.51626e-12, No Iterations 5
DILUPBiCGStab:  Solving for Uz, Initial residual = 0.154437, Final residual = 6.1087e-12, No Iterations 5
linear solve U 4789
[OGL LOG] init_host_sparsity_pattern : 2 ms
[OGL LOG] matrix not stored update host matrix
[OGL LOG] update_host_mtx : 0 ms
[OGL LOG] matrix is not yet sorted, sorting host matrix
[OGL LOG] sort_host_mtx_sparsity_pattern : 1 ms
[OGL LOG] sort_host_mtx : 0 ms
[OGL LOG] init_preconditioner : 0 ms
[OGL LOG] solve : 19 ms
nonecudaGKOIR:  Solving for p, Initial residual = 0.0542747, Final residual = 1.20246e-05, No Iterations 2
linear solve p 25145
time step continuity errors : sum local = 1.01283e-08, global = -3.18234e-20, cumulative = -4.13899e-20
[OGL LOG] init_host_sparsity_pattern : 2 ms
[OGL LOG] matrix not stored update host matrix
[OGL LOG] update_host_mtx : 1 ms
[OGL LOG] matrix is not yet sorted, sorting host matrix
[OGL LOG] sort_host_mtx_sparsity_pattern : 1 ms
[OGL LOG] sort_host_mtx : 0 ms
[OGL LOG] init_preconditioner : 0 ms
[OGL LOG] solve : 19 ms
nonecudaGKOIR:  Solving for p, Initial residual = 0.0313903, Final residual = 5.80748e-06, No Iterations 2
linear solve p 25085
time step continuity errors : sum local = 5.01473e-09, global = 3.45666e-21, cumulative = -3.79332e-20
ExecutionTime = 1.07 s  ClockTime = 1 s

Time = 0.005

Courant Number mean: 0.0204635 max: 0.135215
DILUPBiCGStab:  Solving for Ux, Initial residual = 0.0403985, Final residual = 1.59891e-12, No Iterations 5
DILUPBiCGStab:  Solving for Uy, Initial residual = 0.0549624, Final residual = 1.29623e-12, No Iterations 5
DILUPBiCGStab:  Solving for Uz, Initial residual = 0.106747, Final residual = 3.65074e-12, No Iterations 5
linear solve U 4594
[OGL LOG] init_host_sparsity_pattern : 2 ms
[OGL LOG] matrix not stored update host matrix
[OGL LOG] update_host_mtx : 0 ms
[OGL LOG] matrix is not yet sorted, sorting host matrix
[OGL LOG] sort_host_mtx_sparsity_pattern : 1 ms
[OGL LOG] sort_host_mtx : 0 ms
[OGL LOG] init_preconditioner : 0 ms
[OGL LOG] solve : 18 ms
nonecudaGKOIR:  Solving for p, Initial residual = 0.0356727, Final residual = 8.4163e-06, No Iterations 2
linear solve p 24872
time step continuity errors : sum local = 7.35645e-09, global = 2.61403e-20, cumulative = -1.1793e-20
[OGL LOG] init_host_sparsity_pattern : 2 ms
[OGL LOG] matrix not stored update host matrix
[OGL LOG] update_host_mtx : 0 ms
[OGL LOG] matrix is not yet sorted, sorting host matrix
[OGL LOG] sort_host_mtx_sparsity_pattern : 1 ms
[OGL LOG] sort_host_mtx : 0 ms
[OGL LOG] init_preconditioner : 0 ms
[OGL LOG] solve : 19 ms
nonecudaGKOIR:  Solving for p, Initial residual = 0.0201384, Final residual = 3.7446e-06, No Iterations 2
linear solve p 25129
time step continuity errors : sum local = 3.32866e-09, global = 8.98879e-21, cumulative = -2.80417e-21
ExecutionTime = 1.13 s  ClockTime = 1 s

Time = 0.006

Courant Number mean: 0.0225084 max: 0.142365
DILUPBiCGStab:  Solving for Ux, Initial residual = 0.0295659, Final residual = 1.18814e-12, No Iterations 5
DILUPBiCGStab:  Solving for Uy, Initial residual = 0.0406119, Final residual = 8.47393e-13, No Iterations 5
DILUPBiCGStab:  Solving for Uz, Initial residual = 0.0812049, Final residual = 2.48214e-12, No Iterations 5
linear solve U 4679
[OGL LOG] init_host_sparsity_pattern : 2 ms
[OGL LOG] matrix not stored update host matrix
[OGL LOG] update_host_mtx : 0 ms
[OGL LOG] matrix is not yet sorted, sorting host matrix
[OGL LOG] sort_host_mtx_sparsity_pattern : 1 ms
[OGL LOG] sort_host_mtx : 0 ms
[OGL LOG] init_preconditioner : 0 ms
[OGL LOG] solve : 18 ms
nonecudaGKOIR:  Solving for p, Initial residual = 0.0254196, Final residual = 6.15543e-06, No Iterations 2
linear solve p 24869
time step continuity errors : sum local = 5.52409e-09, global = 1.6146e-20, cumulative = 1.33418e-20
[OGL LOG] init_host_sparsity_pattern : 2 ms
[OGL LOG] matrix not stored update host matrix
[OGL LOG] update_host_mtx : 0 ms
[OGL LOG] matrix is not yet sorted, sorting host matrix
[OGL LOG] sort_host_mtx_sparsity_pattern : 1 ms
[OGL LOG] sort_host_mtx : 0 ms
[OGL LOG] init_preconditioner : 0 ms
[OGL LOG] solve : 19 ms
nonecudaGKOIR:  Solving for p, Initial residual = 0.0141141, Final residual = 2.51127e-06, No Iterations 2
linear solve p 25139
time step continuity errors : sum local = 2.28194e-09, global = 2.00408e-20, cumulative = 3.33825e-20
ExecutionTime = 1.18 s  ClockTime = 1 s

Time = 0.007

Courant Number mean: 0.0241614 max: 0.147196
DILUPBiCGStab:  Solving for Ux, Initial residual = 0.0229938, Final residual = 6.69587e-13, No Iterations 5
DILUPBiCGStab:  Solving for Uy, Initial residual = 0.0317454, Final residual = 6.50355e-13, No Iterations 5
DILUPBiCGStab:  Solving for Uz, Initial residual = 0.0649024, Final residual = 1.81109e-12, No Iterations 5
linear solve U 4592
[OGL LOG] init_host_sparsity_pattern : 2 ms
[OGL LOG] matrix not stored update host matrix
[OGL LOG] update_host_mtx : 0 ms
[OGL LOG] matrix is not yet sorted, sorting host matrix
[OGL LOG] sort_host_mtx_sparsity_pattern : 1 ms
[OGL LOG] sort_host_mtx : 0 ms
[OGL LOG] init_preconditioner : 0 ms
[OGL LOG] solve : 19 ms
nonecudaGKOIR:  Solving for p, Initial residual = 0.0186519, Final residual = 3.22157e-06, No Iterations 2
linear solve p 25292
time step continuity errors : sum local = 2.94678e-09, global = -2.42938e-20, cumulative = 9.08877e-21
[OGL LOG] init_host_sparsity_pattern : 2 ms
[OGL LOG] matrix not stored update host matrix
[OGL LOG] update_host_mtx : 1 ms
[OGL LOG] matrix is not yet sorted, sorting host matrix
[OGL LOG] sort_host_mtx_sparsity_pattern : 1 ms
[OGL LOG] sort_host_mtx : 0 ms
[OGL LOG] init_preconditioner : 0 ms
[OGL LOG] solve : 19 ms
nonecudaGKOIR:  Solving for p, Initial residual = 0.0104074, Final residual = 1.76936e-06, No Iterations 2
linear solve p 25515
time step continuity errors : sum local = 1.63125e-09, global = 3.2987e-20, cumulative = 4.20757e-20
ExecutionTime = 1.24 s  ClockTime = 1 s

Time = 0.008

Courant Number mean: 0.0255323 max: 0.150665
DILUPBiCGStab:  Solving for Ux, Initial residual = 0.0184892, Final residual = 3.54112e-13, No Iterations 5
DILUPBiCGStab:  Solving for Uy, Initial residual = 0.0257938, Final residual = 5.06166e-13, No Iterations 5
DILUPBiCGStab:  Solving for Uz, Initial residual = 0.0535282, Final residual = 1.41513e-12, No Iterations 5
linear solve U 4594
[OGL LOG] init_host_sparsity_pattern : 2 ms
[OGL LOG] matrix not stored update host matrix
[OGL LOG] update_host_mtx : 0 ms
[OGL LOG] matrix is not yet sorted, sorting host matrix
[OGL LOG] sort_host_mtx_sparsity_pattern : 1 ms
[OGL LOG] sort_host_mtx : 0 ms
[OGL LOG] init_preconditioner : 0 ms
[OGL LOG] solve : 19 ms
nonecudaGKOIR:  Solving for p, Initial residual = 0.0147569, Final residual = 2.6947e-06, No Iterations 2
linear solve p 25279
time step continuity errors : sum local = 2.49897e-09, global = 3.12068e-20, cumulative = 7.32826e-20
[OGL LOG] init_host_sparsity_pattern : 2 ms
[OGL LOG] matrix not stored update host matrix
[OGL LOG] update_host_mtx : 1 ms
[OGL LOG] matrix is not yet sorted, sorting host matrix
[OGL LOG] sort_host_mtx_sparsity_pattern : 1 ms
[OGL LOG] sort_host_mtx : 0 ms
[OGL LOG] init_preconditioner : 0 ms
[OGL LOG] solve : 22 ms
nonecudaGKOIR:  Solving for p, Initial residual = 0.00831194, Final residual = 1.41662e-06, No Iterations 2
linear solve p 28586
time step continuity errors : sum local = 1.32177e-09, global = -1.05091e-20, cumulative = 6.27735e-20
ExecutionTime = 1.3 s  ClockTime = 1 s

Time = 0.009

Courant Number mean: 0.0266824 max: 0.153283
DILUPBiCGStab:  Solving for Ux, Initial residual = 0.0152536, Final residual = 2.01904e-13, No Iterations 5
DILUPBiCGStab:  Solving for Uy, Initial residual = 0.021542, Final residual = 3.95798e-13, No Iterations 5
DILUPBiCGStab:  Solving for Uz, Initial residual = 0.0451302, Final residual = 1.11466e-12, No Iterations 5
linear solve U 4675
[OGL LOG] init_host_sparsity_pattern : 2 ms
[OGL LOG] matrix not stored update host matrix
[OGL LOG] update_host_mtx : 0 ms
[OGL LOG] matrix is not yet sorted, sorting host matrix
[OGL LOG] sort_host_mtx_sparsity_pattern : 1 ms
[OGL LOG] sort_host_mtx : 0 ms
[OGL LOG] init_preconditioner : 0 ms
[OGL LOG] solve : 19 ms
nonecudaGKOIR:  Solving for p, Initial residual = 0.0119501, Final residual = 1.75972e-06, No Iterations 2
linear solve p 25222
time step continuity errors : sum local = 1.64919e-09, global = 2.06993e-20, cumulative = 8.34728e-20
[OGL LOG] init_host_sparsity_pattern : 2 ms
[OGL LOG] matrix not stored update host matrix
[OGL LOG] update_host_mtx : 0 ms
[OGL LOG] matrix is not yet sorted, sorting host matrix
[OGL LOG] sort_host_mtx_sparsity_pattern : 1 ms
[OGL LOG] sort_host_mtx : 0 ms
[OGL LOG] init_preconditioner : 0 ms
[OGL LOG] solve : 19 ms
nonecudaGKOIR:  Solving for p, Initial residual = 0.00682561, Final residual = 1.10266e-06, No Iterations 2
linear solve p 25323
time step continuity errors : sum local = 1.03811e-09, global = -1.6361e-20, cumulative = 6.71117e-20
ExecutionTime = 1.36 s  ClockTime = 1 s

Time = 0.01

Courant Number mean: 0.027667 max: 0.155336
DILUPBiCGStab:  Solving for Ux, Initial residual = 0.0129098, Final residual = 1.30898e-13, No Iterations 5
DILUPBiCGStab:  Solving for Uy, Initial residual = 0.0183552, Final residual = 3.10499e-13, No Iterations 5
DILUPBiCGStab:  Solving for Uz, Initial residual = 0.038718, Final residual = 8.97986e-13, No Iterations 5
linear solve U 4604
[OGL LOG] init_host_sparsity_pattern : 2 ms
[OGL LOG] matrix not stored update host matrix
[OGL LOG] update_host_mtx : 1 ms
[OGL LOG] matrix is not yet sorted, sorting host matrix
[OGL LOG] sort_host_mtx_sparsity_pattern : 1 ms
[OGL LOG] sort_host_mtx : 0 ms
[OGL LOG] init_preconditioner : 0 ms
[OGL LOG] solve : 19 ms
nonecudaGKOIR:  Solving for p, Initial residual = 0.00993331, Final residual = 1.56626e-06, No Iterations 2
linear solve p 25268
time step continuity errors : sum local = 1.48009e-09, global = 1.62587e-20, cumulative = 8.33704e-20
[OGL LOG] init_host_sparsity_pattern : 2 ms
[OGL LOG] matrix not stored update host matrix
[OGL LOG] update_host_mtx : 0 ms
[OGL LOG] matrix is not yet sorted, sorting host matrix
[OGL LOG] sort_host_mtx_sparsity_pattern : 1 ms
[OGL LOG] sort_host_mtx : 0 ms
[OGL LOG] init_preconditioner : 0 ms
[OGL LOG] solve : 6 ms
nonecudaGKOIR:  Solving for p, Initial residual = 0.00574488, Final residual = 9.00008e-05, No Iterations 1
linear solve p 12213
time step continuity errors : sum local = 9.58013e-08, global = 2.07108e-20, cumulative = 1.04081e-19
ExecutionTime = 1.4 s  ClockTime = 1 s

End

