/*---------------------------------------------------------------------------*\
  =========                 |
  \\      /  F ield         | OpenFOAM: The Open Source CFD Toolbox
   \\    /   O peration     | Website:  https://openfoam.org
    \\  /    A nd           | Version:  8
     \\/     M anipulation  |
\*---------------------------------------------------------------------------*/
Build  : 8-ef60d22ea792
Exec   : icoFoam
Date   : Jul 29 2021
Time   : 00:49:25
Host   : "uc2n414.localdomain"
PID    : 2841860
I/O    : uncollated
Case   : /pfs/data5/home/kit/scc/nq7776/code/OBR/lidDrivenCavity3D/Variation_mesh/65/Variation_matrix_solver/CG_BJ_OMP/base
nProcs : 1
sigFpe : Enabling floating point exception trapping (FOAM_SIGFPE).
fileModificationChecking : Monitoring run-time modified files using timeStampMaster (fileModificationSkew 10)
allowSystemOperations : Allowing user-supplied system call operations

// * * * * * * * * * * * * * * * * * * * * * * * * * * * * * * * * * * * * * //
Create time

Create mesh for time = 0

Reading transportProperties

Reading field p

Reading field U

Reading/calculating face flux field phi


Starting time loop

Time = 0.001

Courant Number mean: 0 max: 0
DILUPBiCGStab:  Solving for Ux, Initial residual = 1, Final residual = 0.0009093, No Iterations 5
DILUPBiCGStab:  Solving for Uy:  solution singularity
DILUPBiCGStab:  Solving for Uz:  solution singularity
linear solve U 137385
[OGL LOG] init_host_sparsity_pattern : 84 ms
[OGL LOG] matrix not stored update host matrix
[OGL LOG] update_host_mtx : 43 ms
[OGL LOG] matrix is not yet sorted, compute sorting idxs
[OGL LOG] compute_sort : 2442 ms
[OGL LOG] matrix is not yet sorted, sorting host matrix
[OGL LOG] sort_host_mtx_sparsity_pattern : 56 ms
[OGL LOG] sort_host_mtx : 33 ms
[OGL LOG] init_preconditioner : 77 ms
 CG create  precond 
[OGL LOG] solve : 10127 ms
BJompGKOCG:  Solving for p, Initial residual = 1, Final residual = 9.90523e-05, No Iterations 438
linear solve p 12930575
time step continuity errors : sum local = 5.81945e-08, global = 7.57463e-21, cumulative = 7.57463e-21
[OGL LOG] init_host_sparsity_pattern : 75 ms
[OGL LOG] matrix not stored update host matrix
[OGL LOG] update_host_mtx : 40 ms
[OGL LOG] matrix is not yet sorted, sorting host matrix
[OGL LOG] sort_host_mtx_sparsity_pattern : 62 ms
[OGL LOG] sort_host_mtx : 28 ms
[OGL LOG] init_preconditioner : 0 ms
 CG create  precond 
[OGL LOG] solve : 9724 ms
BJompGKOCG:  Solving for p, Initial residual = 0.710528, Final residual = 9.73539e-05, No Iterations 420
linear solve p 9963859
time step continuity errors : sum local = 7.70109e-08, global = -6.38444e-21, cumulative = 1.19019e-21
ExecutionTime = 24.3 s  ClockTime = 24 s

Time = 0.002

Courant Number mean: 0.036459 max: 0.470838
DILUPBiCGStab:  Solving for Ux, Initial residual = 0.154387, Final residual = 0.000271566, No Iterations 5
DILUPBiCGStab:  Solving for Uy, Initial residual = 0.350437, Final residual = 0.000506094, No Iterations 5
DILUPBiCGStab:  Solving for Uz, Initial residual = 0.98272, Final residual = 0.00176905, No Iterations 5
linear solve U 243602
[OGL LOG] init_host_sparsity_pattern : 72 ms
[OGL LOG] matrix not stored update host matrix
[OGL LOG] update_host_mtx : 37 ms
[OGL LOG] matrix is not yet sorted, sorting host matrix
[OGL LOG] sort_host_mtx_sparsity_pattern : 56 ms
[OGL LOG] sort_host_mtx : 27 ms
[OGL LOG] init_preconditioner : 0 ms
 CG create  precond 
[OGL LOG] solve : 10270 ms
BJompGKOCG:  Solving for p, Initial residual = 0.645935, Final residual = 9.4954e-05, No Iterations 411
linear solve p 10501265
time step continuity errors : sum local = 7.95595e-08, global = 8.79741e-21, cumulative = 9.98759e-21
[OGL LOG] init_host_sparsity_pattern : 75 ms
[OGL LOG] matrix not stored update host matrix
[OGL LOG] update_host_mtx : 40 ms
[OGL LOG] matrix is not yet sorted, sorting host matrix
[OGL LOG] sort_host_mtx_sparsity_pattern : 57 ms
[OGL LOG] sort_host_mtx : 27 ms
[OGL LOG] init_preconditioner : 0 ms
 CG create  precond 
[OGL LOG] solve : 9478 ms
BJompGKOCG:  Solving for p, Initial residual = 0.569373, Final residual = 9.33605e-05, No Iterations 409
linear solve p 9717636
time step continuity errors : sum local = 8.01406e-08, global = 7.1916e-21, cumulative = 1.71792e-20
ExecutionTime = 44.9 s  ClockTime = 45 s

Time = 0.003

Courant Number mean: 0.0547095 max: 0.564541
DILUPBiCGStab:  Solving for Ux, Initial residual = 0.0506125, Final residual = 5.48106e-05, No Iterations 5
DILUPBiCGStab:  Solving for Uy, Initial residual = 0.109593, Final residual = 0.000120717, No Iterations 5
DILUPBiCGStab:  Solving for Uz, Initial residual = 0.389233, Final residual = 0.000655978, No Iterations 5
linear solve U 241102
[OGL LOG] init_host_sparsity_pattern : 72 ms
[OGL LOG] matrix not stored update host matrix
[OGL LOG] update_host_mtx : 37 ms
[OGL LOG] matrix is not yet sorted, sorting host matrix
[OGL LOG] sort_host_mtx_sparsity_pattern : 56 ms
[OGL LOG] sort_host_mtx : 27 ms
[OGL LOG] init_preconditioner : 0 ms
 CG create  precond 
[OGL LOG] solve : 9508 ms
BJompGKOCG:  Solving for p, Initial residual = 0.547672, Final residual = 9.84098e-05, No Iterations 405
linear solve p 9738843
time step continuity errors : sum local = 5.76274e-08, global = -8.73773e-21, cumulative = 8.44147e-21
[OGL LOG] init_host_sparsity_pattern : 76 ms
[OGL LOG] matrix not stored update host matrix
[OGL LOG] update_host_mtx : 42 ms
[OGL LOG] matrix is not yet sorted, sorting host matrix
[OGL LOG] sort_host_mtx_sparsity_pattern : 58 ms
[OGL LOG] sort_host_mtx : 29 ms
[OGL LOG] init_preconditioner : 0 ms
 CG create  precond 
[OGL LOG] solve : 9311 ms
BJompGKOCG:  Solving for p, Initial residual = 0.491419, Final residual = 9.63464e-05, No Iterations 403
linear solve p 9554683
time step continuity errors : sum local = 5.48136e-08, global = 2.6224e-21, cumulative = 1.10639e-20
ExecutionTime = 64.55 s  ClockTime = 65 s

Time = 0.004

Courant Number mean: 0.0645906 max: 0.579607
DILUPBiCGStab:  Solving for Ux, Initial residual = 0.0290687, Final residual = 3.32227e-05, No Iterations 5
DILUPBiCGStab:  Solving for Uy, Initial residual = 0.0718626, Final residual = 5.5503e-05, No Iterations 5
DILUPBiCGStab:  Solving for Uz, Initial residual = 0.208845, Final residual = 0.000261761, No Iterations 5
linear solve U 239179
[OGL LOG] init_host_sparsity_pattern : 72 ms
[OGL LOG] matrix not stored update host matrix
[OGL LOG] update_host_mtx : 38 ms
[OGL LOG] matrix is not yet sorted, sorting host matrix
[OGL LOG] sort_host_mtx_sparsity_pattern : 56 ms
[OGL LOG] sort_host_mtx : 29 ms
[OGL LOG] init_preconditioner : 0 ms
 CG create  precond 
[OGL LOG] solve : 9179 ms
BJompGKOCG:  Solving for p, Initial residual = 0.316477, Final residual = 9.47144e-05, No Iterations 397
linear solve p 9411266
time step continuity errors : sum local = 4.92561e-08, global = -8.47185e-21, cumulative = 2.59202e-21
[OGL LOG] init_host_sparsity_pattern : 76 ms
[OGL LOG] matrix not stored update host matrix
[OGL LOG] update_host_mtx : 40 ms
[OGL LOG] matrix is not yet sorted, sorting host matrix
[OGL LOG] sort_host_mtx_sparsity_pattern : 56 ms
[OGL LOG] sort_host_mtx : 27 ms
[OGL LOG] init_preconditioner : 0 ms
 CG create  precond 
[OGL LOG] solve : 9348 ms
BJompGKOCG:  Solving for p, Initial residual = 0.261702, Final residual = 9.0897e-05, No Iterations 396
linear solve p 9584261
time step continuity errors : sum local = 4.78451e-08, global = -1.46957e-20, cumulative = -1.21037e-20
ExecutionTime = 83.9 s  ClockTime = 84 s

Time = 0.005

Courant Number mean: 0.0722268 max: 0.589263
DILUPBiCGStab:  Solving for Ux, Initial residual = 0.0206402, Final residual = 1.46592e-05, No Iterations 5
DILUPBiCGStab:  Solving for Uy, Initial residual = 0.0445526, Final residual = 3.5085e-05, No Iterations 5
DILUPBiCGStab:  Solving for Uz, Initial residual = 0.0747477, Final residual = 7.55357e-05, No Iterations 5
linear solve U 281444
[OGL LOG] init_host_sparsity_pattern : 77 ms
[OGL LOG] matrix not stored update host matrix
[OGL LOG] update_host_mtx : 41 ms
[OGL LOG] matrix is not yet sorted, sorting host matrix
[OGL LOG] sort_host_mtx_sparsity_pattern : 60 ms
[OGL LOG] sort_host_mtx : 29 ms
[OGL LOG] init_preconditioner : 0 ms
 CG create  precond 
[OGL LOG] solve : 8886 ms
BJompGKOCG:  Solving for p, Initial residual = 0.213975, Final residual = 9.77219e-05, No Iterations 375
linear solve p 9137939
time step continuity errors : sum local = 4.45124e-08, global = -1.56244e-20, cumulative = -2.77281e-20
[OGL LOG] init_host_sparsity_pattern : 75 ms
[OGL LOG] matrix not stored update host matrix
[OGL LOG] update_host_mtx : 41 ms
[OGL LOG] matrix is not yet sorted, sorting host matrix
[OGL LOG] sort_host_mtx_sparsity_pattern : 58 ms
[OGL LOG] sort_host_mtx : 28 ms
[OGL LOG] init_preconditioner : 0 ms
 CG create  precond 
[OGL LOG] solve : 8740 ms
BJompGKOCG:  Solving for p, Initial residual = 0.179743, Final residual = 9.94793e-05, No Iterations 374
linear solve p 8984900
time step continuity errors : sum local = 4.50502e-08, global = -1.15006e-20, cumulative = -3.92287e-20
ExecutionTime = 102.46 s  ClockTime = 103 s

Time = 0.006

Courant Number mean: 0.0781056 max: 0.595023
DILUPBiCGStab:  Solving for Ux, Initial residual = 0.0153442, Final residual = 1.31802e-05, No Iterations 5
DILUPBiCGStab:  Solving for Uy, Initial residual = 0.0341671, Final residual = 1.47444e-05, No Iterations 5
DILUPBiCGStab:  Solving for Uz, Initial residual = 0.0672546, Final residual = 6.50872e-05, No Iterations 5
linear solve U 239863
[OGL LOG] init_host_sparsity_pattern : 72 ms
[OGL LOG] matrix not stored update host matrix
[OGL LOG] update_host_mtx : 37 ms
[OGL LOG] matrix is not yet sorted, sorting host matrix
[OGL LOG] sort_host_mtx_sparsity_pattern : 56 ms
[OGL LOG] sort_host_mtx : 28 ms
[OGL LOG] init_preconditioner : 0 ms
 CG create  precond 
[OGL LOG] solve : 4327 ms
BJompGKOCG:  Solving for p, Initial residual = 0.126696, Final residual = 9.48952e-05, No Iterations 182
linear solve p 4559525
time step continuity errors : sum local = 5.07521e-08, global = 6.85821e-21, cumulative = -3.23705e-20
[OGL LOG] init_host_sparsity_pattern : 75 ms
[OGL LOG] matrix not stored update host matrix
[OGL LOG] update_host_mtx : 40 ms
[OGL LOG] matrix is not yet sorted, sorting host matrix
[OGL LOG] sort_host_mtx_sparsity_pattern : 58 ms
[OGL LOG] sort_host_mtx : 27 ms
[OGL LOG] init_preconditioner : 0 ms
 CG create  precond 
[OGL LOG] solve : 4137 ms
BJompGKOCG:  Solving for p, Initial residual = 0.103786, Final residual = 9.85256e-05, No Iterations 178
linear solve p 4378229
time step continuity errors : sum local = 4.66578e-08, global = -2.09088e-21, cumulative = -3.44614e-20
ExecutionTime = 111.8 s  ClockTime = 112 s

Time = 0.007

Courant Number mean: 0.0829417 max: 0.598974
DILUPBiCGStab:  Solving for Ux, Initial residual = 0.0121947, Final residual = 5.65257e-06, No Iterations 5
DILUPBiCGStab:  Solving for Uy, Initial residual = 0.0270199, Final residual = 1.49273e-05, No Iterations 5
DILUPBiCGStab:  Solving for Uz, Initial residual = 0.0486958, Final residual = 4.10289e-05, No Iterations 5
linear solve U 239191
[OGL LOG] init_host_sparsity_pattern : 72 ms
[OGL LOG] matrix not stored update host matrix
[OGL LOG] update_host_mtx : 37 ms
[OGL LOG] matrix is not yet sorted, sorting host matrix
[OGL LOG] sort_host_mtx_sparsity_pattern : 56 ms
[OGL LOG] sort_host_mtx : 27 ms
[OGL LOG] init_preconditioner : 0 ms
 CG create  precond 
[OGL LOG] solve : 4048 ms
BJompGKOCG:  Solving for p, Initial residual = 0.0845847, Final residual = 9.6863e-05, No Iterations 174
linear solve p 4277230
time step continuity errors : sum local = 4.27164e-08, global = -2.36448e-21, cumulative = -3.68259e-20
[OGL LOG] init_host_sparsity_pattern : 75 ms
[OGL LOG] matrix not stored update host matrix
[OGL LOG] update_host_mtx : 40 ms
[OGL LOG] matrix is not yet sorted, sorting host matrix
[OGL LOG] sort_host_mtx_sparsity_pattern : 56 ms
[OGL LOG] sort_host_mtx : 27 ms
[OGL LOG] init_preconditioner : 0 ms
 CG create  precond 
[OGL LOG] solve : 3997 ms
BJompGKOCG:  Solving for p, Initial residual = 0.0700345, Final residual = 9.82609e-05, No Iterations 172
linear solve p 4230695
time step continuity errors : sum local = 4.31891e-08, global = -1.55739e-22, cumulative = -3.69816e-20
ExecutionTime = 120.66 s  ClockTime = 121 s

Time = 0.008

Courant Number mean: 0.0869903 max: 0.601971
DILUPBiCGStab:  Solving for Ux, Initial residual = 0.0100249, Final residual = 4.75325e-06, No Iterations 5
DILUPBiCGStab:  Solving for Uy, Initial residual = 0.0221931, Final residual = 6.29357e-06, No Iterations 5
DILUPBiCGStab:  Solving for Uz, Initial residual = 0.0417826, Final residual = 2.72318e-05, No Iterations 5
linear solve U 238958
[OGL LOG] init_host_sparsity_pattern : 73 ms
[OGL LOG] matrix not stored update host matrix
[OGL LOG] update_host_mtx : 38 ms
[OGL LOG] matrix is not yet sorted, sorting host matrix
[OGL LOG] sort_host_mtx_sparsity_pattern : 56 ms
[OGL LOG] sort_host_mtx : 27 ms
[OGL LOG] init_preconditioner : 0 ms
 CG create  precond 
[OGL LOG] solve : 4099 ms
BJompGKOCG:  Solving for p, Initial residual = 0.0542783, Final residual = 9.90029e-05, No Iterations 176
linear solve p 4329516
time step continuity errors : sum local = 5.06466e-08, global = 1.83078e-20, cumulative = -1.86738e-20
[OGL LOG] init_host_sparsity_pattern : 80 ms
[OGL LOG] matrix not stored update host matrix
[OGL LOG] update_host_mtx : 44 ms
[OGL LOG] matrix is not yet sorted, sorting host matrix
[OGL LOG] sort_host_mtx_sparsity_pattern : 56 ms
[OGL LOG] sort_host_mtx : 27 ms
[OGL LOG] init_preconditioner : 0 ms
 CG create  precond 
[OGL LOG] solve : 3944 ms
BJompGKOCG:  Solving for p, Initial residual = 0.0450891, Final residual = 9.6942e-05, No Iterations 169
linear solve p 4189233
time step continuity errors : sum local = 4.47223e-08, global = 7.59488e-22, cumulative = -1.79143e-20
ExecutionTime = 129.55 s  ClockTime = 130 s

Time = 0.009

Courant Number mean: 0.0904654 max: 0.604263
DILUPBiCGStab:  Solving for Ux, Initial residual = 0.00840355, Final residual = 2.59144e-06, No Iterations 5
DILUPBiCGStab:  Solving for Uy, Initial residual = 0.0188049, Final residual = 6.3988e-06, No Iterations 5
DILUPBiCGStab:  Solving for Uz, Initial residual = 0.0357856, Final residual = 2.1497e-05, No Iterations 5
linear solve U 239054
[OGL LOG] init_host_sparsity_pattern : 73 ms
[OGL LOG] matrix not stored update host matrix
[OGL LOG] update_host_mtx : 41 ms
[OGL LOG] matrix is not yet sorted, sorting host matrix
[OGL LOG] sort_host_mtx_sparsity_pattern : 61 ms
[OGL LOG] sort_host_mtx : 29 ms
[OGL LOG] init_preconditioner : 0 ms
 CG create  precond 
[OGL LOG] solve : 3976 ms
BJompGKOCG:  Solving for p, Initial residual = 0.0386705, Final residual = 9.81898e-05, No Iterations 167
linear solve p 4225922
time step continuity errors : sum local = 4.2627e-08, global = -1.14428e-20, cumulative = -2.93571e-20
[OGL LOG] init_host_sparsity_pattern : 76 ms
[OGL LOG] matrix not stored update host matrix
[OGL LOG] update_host_mtx : 40 ms
[OGL LOG] matrix is not yet sorted, sorting host matrix
[OGL LOG] sort_host_mtx_sparsity_pattern : 59 ms
[OGL LOG] sort_host_mtx : 27 ms
[OGL LOG] init_preconditioner : 0 ms
 CG create  precond 
[OGL LOG] solve : 3861 ms
BJompGKOCG:  Solving for p, Initial residual = 0.0326519, Final residual = 9.36464e-05, No Iterations 166
linear solve p 4104698
time step continuity errors : sum local = 4.05657e-08, global = -3.48045e-20, cumulative = -6.41617e-20
ExecutionTime = 138.28 s  ClockTime = 139 s

Time = 0.01

Courant Number mean: 0.0934677 max: 0.606123
DILUPBiCGStab:  Solving for Ux, Initial residual = 0.00720773, Final residual = 2.06887e-06, No Iterations 5
DILUPBiCGStab:  Solving for Uy, Initial residual = 0.0161007, Final residual = 2.54279e-06, No Iterations 5
DILUPBiCGStab:  Solving for Uz, Initial residual = 0.031188, Final residual = 1.54449e-05, No Iterations 5
linear solve U 239626
[OGL LOG] init_host_sparsity_pattern : 72 ms
[OGL LOG] matrix not stored update host matrix
[OGL LOG] update_host_mtx : 38 ms
[OGL LOG] matrix is not yet sorted, sorting host matrix
[OGL LOG] sort_host_mtx_sparsity_pattern : 56 ms
[OGL LOG] sort_host_mtx : 27 ms
[OGL LOG] init_preconditioner : 0 ms
 CG create  precond 
[OGL LOG] solve : 4106 ms
BJompGKOCG:  Solving for p, Initial residual = 0.02717, Final residual = 9.96767e-05, No Iterations 177
linear solve p 4335443
time step continuity errors : sum local = 5.12277e-08, global = 1.86976e-20, cumulative = -4.54641e-20
[OGL LOG] init_host_sparsity_pattern : 75 ms
[OGL LOG] matrix not stored update host matrix
[OGL LOG] update_host_mtx : 40 ms
[OGL LOG] matrix is not yet sorted, sorting host matrix
[OGL LOG] sort_host_mtx_sparsity_pattern : 56 ms
[OGL LOG] sort_host_mtx : 27 ms
[OGL LOG] init_preconditioner : 0 ms
 CG create  precond 
[OGL LOG] solve : 3814 ms
BJompGKOCG:  Solving for p, Initial residual = 0.0233634, Final residual = 9.74657e-05, No Iterations 164
linear solve p 4047145
time step continuity errors : sum local = 4.50827e-08, global = 1.04819e-20, cumulative = -3.49821e-20
ExecutionTime = 147.03 s  ClockTime = 147 s

End

