/*---------------------------------------------------------------------------*\
  =========                 |
  \\      /  F ield         | OpenFOAM: The Open Source CFD Toolbox
   \\    /   O peration     | Website:  https://openfoam.org
    \\  /    A nd           | Version:  8
     \\/     M anipulation  |
\*---------------------------------------------------------------------------*/
Build  : 8-ef60d22ea792
Exec   : icoFoam
Date   : Jul 29 2021
Time   : 07:01:08
Host   : "nla-gpu2.ianm.kit.edu"
PID    : 1940223
I/O    : uncollated
Case   : /home/greole/code/OBR/lidDrivenCavity3D/Variation_mesh/5/Variation_matrix_solver/CG_BJ_HIP/base
nProcs : 1
sigFpe : Enabling floating point exception trapping (FOAM_SIGFPE).
fileModificationChecking : Monitoring run-time modified files using timeStampMaster (fileModificationSkew 10)
allowSystemOperations : Allowing user-supplied system call operations

// * * * * * * * * * * * * * * * * * * * * * * * * * * * * * * * * * * * * * //
Create time

Create mesh for time = 0

Reading transportProperties

Reading field p

Reading field U

Reading/calculating face flux field phi


Starting time loop

Time = 0.001

Courant Number mean: 0 max: 0
DILUPBiCGStab:  Solving for Ux, Initial residual = 1, Final residual = 8.38041e-30, No Iterations 5
DILUPBiCGStab:  Solving for Uy:  solution singularity
DILUPBiCGStab:  Solving for Uz:  solution singularity
linear solve U 163
[OGL LOG] init_host_sparsity_pattern : 0 ms
[OGL LOG] matrix not stored update host matrix
[OGL LOG] update_host_mtx : 0 ms
[OGL LOG] matrix is not yet sorted, compute sorting idxs
[OGL LOG] compute_sort : 0 ms
[OGL LOG] matrix is not yet sorted, sorting host matrix
[OGL LOG] sort_host_mtx_sparsity_pattern : 0 ms
[OGL LOG] sort_host_mtx : 0 ms
[OGL LOG] init_preconditioner : 49 ms
 CG create  precond 
[OGL LOG] solve : 41 ms
BJhipGKOCG:  Solving for p, Initial residual = 1, Final residual = 7.54946e-05, No Iterations 24
linear solve p 499009
time step continuity errors : sum local = 1.40976e-08, global = -5.78303e-22, cumulative = -5.78303e-22
[OGL LOG] init_host_sparsity_pattern : 0 ms
[OGL LOG] matrix not stored update host matrix
[OGL LOG] update_host_mtx : 0 ms
[OGL LOG] matrix is not yet sorted, sorting host matrix
[OGL LOG] sort_host_mtx_sparsity_pattern : 0 ms
[OGL LOG] sort_host_mtx : 0 ms
[OGL LOG] init_preconditioner : 0 ms
 CG create  precond 
[OGL LOG] solve : 2 ms
BJhipGKOCG:  Solving for p, Initial residual = 0.0544933, Final residual = 5.94698e-05, No Iterations 20
linear solve p 3555
time step continuity errors : sum local = 2.23073e-08, global = 3.25485e-21, cumulative = 2.67655e-21
ExecutionTime = 0.58 s  ClockTime = 1 s

Time = 0.002

Courant Number mean: 0.000593121 max: 0.00137348
DILUPBiCGStab:  Solving for Ux, Initial residual = 0.290545, Final residual = 1.32909e-30, No Iterations 5
DILUPBiCGStab:  Solving for Uy, Initial residual = 0.317548, Final residual = 1.13413e-30, No Iterations 5
DILUPBiCGStab:  Solving for Uz, Initial residual = 0.318839, Final residual = 2.87405e-30, No Iterations 5
linear solve U 115
[OGL LOG] init_host_sparsity_pattern : 0 ms
[OGL LOG] matrix not stored update host matrix
[OGL LOG] update_host_mtx : 0 ms
[OGL LOG] matrix is not yet sorted, sorting host matrix
[OGL LOG] sort_host_mtx_sparsity_pattern : 0 ms
[OGL LOG] sort_host_mtx : 0 ms
[OGL LOG] init_preconditioner : 0 ms
 CG create  precond 
[OGL LOG] solve : 1 ms
BJhipGKOCG:  Solving for p, Initial residual = 0.110395, Final residual = 7.59351e-05, No Iterations 11
linear solve p 2357
time step continuity errors : sum local = 4.52876e-08, global = -8.60537e-21, cumulative = -5.92882e-21
[OGL LOG] init_host_sparsity_pattern : 0 ms
[OGL LOG] matrix not stored update host matrix
[OGL LOG] update_host_mtx : 0 ms
[OGL LOG] matrix is not yet sorted, sorting host matrix
[OGL LOG] sort_host_mtx_sparsity_pattern : 0 ms
[OGL LOG] sort_host_mtx : 0 ms
[OGL LOG] init_preconditioner : 0 ms
 CG create  precond 
[OGL LOG] solve : 1 ms
BJhipGKOCG:  Solving for p, Initial residual = 0.00289695, Final residual = 9.72598e-05, No Iterations 6
linear solve p 1569
time step continuity errors : sum local = 5.36887e-08, global = -5.06793e-21, cumulative = -1.09967e-20
ExecutionTime = 0.58 s  ClockTime = 1 s

Time = 0.003

Courant Number mean: 0.00113043 max: 0.00263299
DILUPBiCGStab:  Solving for Ux, Initial residual = 0.161954, Final residual = 7.38261e-31, No Iterations 5
DILUPBiCGStab:  Solving for Uy, Initial residual = 0.186572, Final residual = 6.79904e-31, No Iterations 5
DILUPBiCGStab:  Solving for Uz, Initial residual = 0.229769, Final residual = 1.59543e-30, No Iterations 5
linear solve U 105
[OGL LOG] init_host_sparsity_pattern : 0 ms
[OGL LOG] matrix not stored update host matrix
[OGL LOG] update_host_mtx : 0 ms
[OGL LOG] matrix is not yet sorted, sorting host matrix
[OGL LOG] sort_host_mtx_sparsity_pattern : 0 ms
[OGL LOG] sort_host_mtx : 0 ms
[OGL LOG] init_preconditioner : 0 ms
 CG create  precond 
[OGL LOG] solve : 2 ms
BJhipGKOCG:  Solving for p, Initial residual = 0.0561604, Final residual = 8.10022e-05, No Iterations 17
linear solve p 3010
time step continuity errors : sum local = 3.81749e-08, global = 2.64615e-21, cumulative = -8.3506e-21
[OGL LOG] init_host_sparsity_pattern : 0 ms
[OGL LOG] matrix not stored update host matrix
[OGL LOG] update_host_mtx : 0 ms
[OGL LOG] matrix is not yet sorted, sorting host matrix
[OGL LOG] sort_host_mtx_sparsity_pattern : 0 ms
[OGL LOG] sort_host_mtx : 0 ms
[OGL LOG] init_preconditioner : 0 ms
 CG create  precond 
[OGL LOG] solve : 0 ms
BJhipGKOCG:  Solving for p, Initial residual = 0.00152754, Final residual = 5.13519e-05, No Iterations 5
linear solve p 1435
time step continuity errors : sum local = 2.96824e-08, global = -4.55714e-21, cumulative = -1.29077e-20
ExecutionTime = 0.59 s  ClockTime = 1 s

Time = 0.004

Courant Number mean: 0.0016182 max: 0.0037912
DILUPBiCGStab:  Solving for Ux, Initial residual = 0.108849, Final residual = 5.01427e-31, No Iterations 5
DILUPBiCGStab:  Solving for Uy, Initial residual = 0.129129, Final residual = 4.60967e-31, No Iterations 5
DILUPBiCGStab:  Solving for Uz, Initial residual = 0.175675, Final residual = 1.03325e-30, No Iterations 5
linear solve U 107
[OGL LOG] init_host_sparsity_pattern : 0 ms
[OGL LOG] matrix not stored update host matrix
[OGL LOG] update_host_mtx : 0 ms
[OGL LOG] matrix is not yet sorted, sorting host matrix
[OGL LOG] sort_host_mtx_sparsity_pattern : 0 ms
[OGL LOG] sort_host_mtx : 0 ms
[OGL LOG] init_preconditioner : 0 ms
 CG create  precond 
[OGL LOG] solve : 1 ms
BJhipGKOCG:  Solving for p, Initial residual = 0.0347253, Final residual = 9.12664e-05, No Iterations 9
linear solve p 1955
time step continuity errors : sum local = 6.69565e-08, global = 1.97034e-21, cumulative = -1.09374e-20
[OGL LOG] init_host_sparsity_pattern : 0 ms
[OGL LOG] matrix not stored update host matrix
[OGL LOG] update_host_mtx : 0 ms
[OGL LOG] matrix is not yet sorted, sorting host matrix
[OGL LOG] sort_host_mtx_sparsity_pattern : 0 ms
[OGL LOG] sort_host_mtx : 0 ms
[OGL LOG] init_preconditioner : 0 ms
 CG create  precond 
[OGL LOG] solve : 0 ms
BJhipGKOCG:  Solving for p, Initial residual = 0.00100749, Final residual = 6.88773e-05, No Iterations 5
linear solve p 1425
time step continuity errors : sum local = 5.21106e-08, global = -1.07302e-20, cumulative = -2.16676e-20
ExecutionTime = 0.59 s  ClockTime = 1 s

Time = 0.005

Courant Number mean: 0.00206191 max: 0.00485794
DILUPBiCGStab:  Solving for Ux, Initial residual = 0.0800665, Final residual = 3.7333e-31, No Iterations 5
DILUPBiCGStab:  Solving for Uy, Initial residual = 0.0966941, Final residual = 3.34077e-31, No Iterations 5
DILUPBiCGStab:  Solving for Uz, Initial residual = 0.142825, Final residual = 7.10888e-31, No Iterations 5
linear solve U 106
[OGL LOG] init_host_sparsity_pattern : 0 ms
[OGL LOG] matrix not stored update host matrix
[OGL LOG] update_host_mtx : 0 ms
[OGL LOG] matrix is not yet sorted, sorting host matrix
[OGL LOG] sort_host_mtx_sparsity_pattern : 0 ms
[OGL LOG] sort_host_mtx : 0 ms
[OGL LOG] init_preconditioner : 0 ms
 CG create  precond 
[OGL LOG] solve : 2 ms
BJhipGKOCG:  Solving for p, Initial residual = 0.0235599, Final residual = 7.55099e-05, No Iterations 17
linear solve p 2977
time step continuity errors : sum local = 4.10104e-08, global = -4.96226e-21, cumulative = -2.66298e-20
[OGL LOG] init_host_sparsity_pattern : 0 ms
[OGL LOG] matrix not stored update host matrix
[OGL LOG] update_host_mtx : 0 ms
[OGL LOG] matrix is not yet sorted, sorting host matrix
[OGL LOG] sort_host_mtx_sparsity_pattern : 0 ms
[OGL LOG] sort_host_mtx : 0 ms
[OGL LOG] init_preconditioner : 0 ms
 CG create  precond 
[OGL LOG] solve : 0 ms
BJhipGKOCG:  Solving for p, Initial residual = 0.000772012, Final residual = 3.92272e-05, No Iterations 5
linear solve p 1423
time step continuity errors : sum local = 2.74708e-08, global = 8.60723e-21, cumulative = -1.80226e-20
ExecutionTime = 0.61 s  ClockTime = 1 s

Time = 0.006

Courant Number mean: 0.00246619 max: 0.00584194
DILUPBiCGStab:  Solving for Ux, Initial residual = 0.0620373, Final residual = 2.92002e-31, No Iterations 5
DILUPBiCGStab:  Solving for Uy, Initial residual = 0.0759886, Final residual = 2.54734e-31, No Iterations 5
DILUPBiCGStab:  Solving for Uz, Initial residual = 0.118362, Final residual = 6.25225e-31, No Iterations 5
linear solve U 106
[OGL LOG] init_host_sparsity_pattern : 0 ms
[OGL LOG] matrix not stored update host matrix
[OGL LOG] update_host_mtx : 0 ms
[OGL LOG] matrix is not yet sorted, sorting host matrix
[OGL LOG] sort_host_mtx_sparsity_pattern : 0 ms
[OGL LOG] sort_host_mtx : 0 ms
[OGL LOG] init_preconditioner : 0 ms
 CG create  precond 
[OGL LOG] solve : 1 ms
BJhipGKOCG:  Solving for p, Initial residual = 0.0172836, Final residual = 8.79503e-05, No Iterations 9
linear solve p 1946
time step continuity errors : sum local = 7.54388e-08, global = 1.56569e-20, cumulative = -2.36574e-21
[OGL LOG] init_host_sparsity_pattern : 0 ms
[OGL LOG] matrix not stored update host matrix
[OGL LOG] update_host_mtx : 0 ms
[OGL LOG] matrix is not yet sorted, sorting host matrix
[OGL LOG] sort_host_mtx_sparsity_pattern : 0 ms
[OGL LOG] sort_host_mtx : 0 ms
[OGL LOG] init_preconditioner : 0 ms
 CG create  precond 
[OGL LOG] solve : 0 ms
BJhipGKOCG:  Solving for p, Initial residual = 0.000618198, Final residual = 9.96522e-05, No Iterations 4
linear solve p 1288
time step continuity errors : sum local = 7.79161e-08, global = 1.70407e-20, cumulative = 1.4675e-20
ExecutionTime = 0.62 s  ClockTime = 1 s

Time = 0.007

Courant Number mean: 0.00283513 max: 0.00675066
DILUPBiCGStab:  Solving for Ux, Initial residual = 0.0497801, Final residual = 2.35985e-31, No Iterations 5
DILUPBiCGStab:  Solving for Uy, Initial residual = 0.0616355, Final residual = 2.02416e-31, No Iterations 5
DILUPBiCGStab:  Solving for Uz, Initial residual = 0.101284, Final residual = 6.16773e-31, No Iterations 5
linear solve U 104
[OGL LOG] init_host_sparsity_pattern : 0 ms
[OGL LOG] matrix not stored update host matrix
[OGL LOG] update_host_mtx : 0 ms
[OGL LOG] matrix is not yet sorted, sorting host matrix
[OGL LOG] sort_host_mtx_sparsity_pattern : 0 ms
[OGL LOG] sort_host_mtx : 0 ms
[OGL LOG] init_preconditioner : 0 ms
 CG create  precond 
[OGL LOG] solve : 2 ms
BJhipGKOCG:  Solving for p, Initial residual = 0.0132888, Final residual = 5.9682e-05, No Iterations 17
linear solve p 2970
time step continuity errors : sum local = 3.47586e-08, global = 2.02386e-20, cumulative = 3.49136e-20
[OGL LOG] init_host_sparsity_pattern : 0 ms
[OGL LOG] matrix not stored update host matrix
[OGL LOG] update_host_mtx : 0 ms
[OGL LOG] matrix is not yet sorted, sorting host matrix
[OGL LOG] sort_host_mtx_sparsity_pattern : 0 ms
[OGL LOG] sort_host_mtx : 0 ms
[OGL LOG] init_preconditioner : 0 ms
 CG create  precond 
[OGL LOG] solve : 0 ms
BJhipGKOCG:  Solving for p, Initial residual = 0.000520037, Final residual = 7.11002e-05, No Iterations 4
linear solve p 1284
time step continuity errors : sum local = 4.77055e-08, global = 4.70873e-21, cumulative = 3.96224e-20
ExecutionTime = 0.62 s  ClockTime = 1 s

Time = 0.008

Courant Number mean: 0.00317231 max: 0.00759081
DILUPBiCGStab:  Solving for Ux, Initial residual = 0.0409, Final residual = 1.95652e-31, No Iterations 5
DILUPBiCGStab:  Solving for Uy, Initial residual = 0.0512149, Final residual = 1.67149e-31, No Iterations 5
DILUPBiCGStab:  Solving for Uz, Initial residual = 0.0875074, Final residual = 6.15015e-31, No Iterations 5
linear solve U 106
[OGL LOG] init_host_sparsity_pattern : 0 ms
[OGL LOG] matrix not stored update host matrix
[OGL LOG] update_host_mtx : 0 ms
[OGL LOG] matrix is not yet sorted, sorting host matrix
[OGL LOG] sort_host_mtx_sparsity_pattern : 0 ms
[OGL LOG] sort_host_mtx : 0 ms
[OGL LOG] init_preconditioner : 0 ms
 CG create  precond 
[OGL LOG] solve : 1 ms
BJhipGKOCG:  Solving for p, Initial residual = 0.0106269, Final residual = 7.44454e-05, No Iterations 9
linear solve p 2109
time step continuity errors : sum local = 6.84428e-08, global = 1.7949e-20, cumulative = 5.75714e-20
[OGL LOG] init_host_sparsity_pattern : 0 ms
[OGL LOG] matrix not stored update host matrix
[OGL LOG] update_host_mtx : 0 ms
[OGL LOG] matrix is not yet sorted, sorting host matrix
[OGL LOG] sort_host_mtx_sparsity_pattern : 0 ms
[OGL LOG] sort_host_mtx : 0 ms
[OGL LOG] init_preconditioner : 0 ms
 CG create  precond 
[OGL LOG] solve : 0 ms
BJhipGKOCG:  Solving for p, Initial residual = 0.000464234, Final residual = 7.56184e-05, No Iterations 4
linear solve p 1286
time step continuity errors : sum local = 6.49515e-08, global = 4.05319e-21, cumulative = 6.16245e-20
ExecutionTime = 0.63 s  ClockTime = 1 s

Time = 0.009

Courant Number mean: 0.00348091 max: 0.00836824
DILUPBiCGStab:  Solving for Ux, Initial residual = 0.0342432, Final residual = 1.65817e-31, No Iterations 5
DILUPBiCGStab:  Solving for Uy, Initial residual = 0.0432826, Final residual = 1.40219e-31, No Iterations 5
DILUPBiCGStab:  Solving for Uz, Initial residual = 0.0772568, Final residual = 5.97849e-31, No Iterations 5
linear solve U 106
[OGL LOG] init_host_sparsity_pattern : 0 ms
[OGL LOG] matrix not stored update host matrix
[OGL LOG] update_host_mtx : 0 ms
[OGL LOG] matrix is not yet sorted, sorting host matrix
[OGL LOG] sort_host_mtx_sparsity_pattern : 0 ms
[OGL LOG] sort_host_mtx : 0 ms
[OGL LOG] init_preconditioner : 0 ms
 CG create  precond 
[OGL LOG] solve : 2 ms
BJhipGKOCG:  Solving for p, Initial residual = 0.00871259, Final residual = 4.24349e-05, No Iterations 17
linear solve p 2961
time step continuity errors : sum local = 2.58148e-08, global = -1.73402e-20, cumulative = 4.42844e-20
[OGL LOG] init_host_sparsity_pattern : 0 ms
[OGL LOG] matrix not stored update host matrix
[OGL LOG] update_host_mtx : 0 ms
[OGL LOG] matrix is not yet sorted, sorting host matrix
[OGL LOG] sort_host_mtx_sparsity_pattern : 0 ms
[OGL LOG] sort_host_mtx : 0 ms
[OGL LOG] init_preconditioner : 0 ms
 CG create  precond 
[OGL LOG] solve : 0 ms
BJhipGKOCG:  Solving for p, Initial residual = 0.000417681, Final residual = 5.75691e-05, No Iterations 4
linear solve p 1287
time step continuity errors : sum local = 4.07874e-08, global = -3.21182e-20, cumulative = 1.21662e-20
ExecutionTime = 0.63 s  ClockTime = 1 s

Time = 0.01

Courant Number mean: 0.0037637 max: 0.00908822
DILUPBiCGStab:  Solving for Ux, Initial residual = 0.029046, Final residual = 1.43089e-31, No Iterations 5
DILUPBiCGStab:  Solving for Uy, Initial residual = 0.0371271, Final residual = 1.19535e-31, No Iterations 5
DILUPBiCGStab:  Solving for Uz, Initial residual = 0.0684648, Final residual = 4.96822e-31, No Iterations 5
linear solve U 106
[OGL LOG] init_host_sparsity_pattern : 0 ms
[OGL LOG] matrix not stored update host matrix
[OGL LOG] update_host_mtx : 0 ms
[OGL LOG] matrix is not yet sorted, sorting host matrix
[OGL LOG] sort_host_mtx_sparsity_pattern : 0 ms
[OGL LOG] sort_host_mtx : 0 ms
[OGL LOG] init_preconditioner : 0 ms
 CG create  precond 
[OGL LOG] solve : 1 ms
BJhipGKOCG:  Solving for p, Initial residual = 0.0073503, Final residual = 8.62023e-05, No Iterations 8
linear solve p 1801
time step continuity errors : sum local = 7.61009e-08, global = 2.46905e-20, cumulative = 3.68567e-20
[OGL LOG] init_host_sparsity_pattern : 0 ms
[OGL LOG] matrix not stored update host matrix
[OGL LOG] update_host_mtx : 0 ms
[OGL LOG] matrix is not yet sorted, sorting host matrix
[OGL LOG] sort_host_mtx_sparsity_pattern : 0 ms
[OGL LOG] sort_host_mtx : 0 ms
[OGL LOG] init_preconditioner : 0 ms
 CG create  precond 
[OGL LOG] solve : 0 ms
BJhipGKOCG:  Solving for p, Initial residual = 0.000381206, Final residual = 6.02273e-05, No Iterations 4
linear solve p 1292
time step continuity errors : sum local = 5.61062e-08, global = -2.07126e-21, cumulative = 3.47854e-20
ExecutionTime = 0.64 s  ClockTime = 1 s

End

