/*---------------------------------------------------------------------------*\
  =========                 |
  \\      /  F ield         | OpenFOAM: The Open Source CFD Toolbox
   \\    /   O peration     | Website:  https://openfoam.org
    \\  /    A nd           | Version:  8
     \\/     M anipulation  |
\*---------------------------------------------------------------------------*/
Build  : 8-ef60d22ea792
Exec   : icoFoam
Date   : Jul 29 2021
Time   : 02:44:57
Host   : "uc2n489.localdomain"
PID    : 3410472
I/O    : uncollated
Case   : /pfs/data5/home/kit/scc/nq7776/code/OBR/lidDrivenCavity3D/Variation_mesh/75/Variation_matrix_solver/IR_NoPrecond_CUDA/base
nProcs : 1
sigFpe : Enabling floating point exception trapping (FOAM_SIGFPE).
fileModificationChecking : Monitoring run-time modified files using timeStampMaster (fileModificationSkew 10)
allowSystemOperations : Allowing user-supplied system call operations

// * * * * * * * * * * * * * * * * * * * * * * * * * * * * * * * * * * * * * //
Create time

Create mesh for time = 0

Reading transportProperties

Reading field p

Reading field U

Reading/calculating face flux field phi


Starting time loop

Time = 0.001

Courant Number mean: 0 max: 0
DILUPBiCGStab:  Solving for Ux, Initial residual = 1, Final residual = 0.00209367, No Iterations 5
DILUPBiCGStab:  Solving for Uy:  solution singularity
DILUPBiCGStab:  Solving for Uz:  solution singularity
linear solve U 203669
[OGL LOG] init_host_sparsity_pattern : 119 ms
[OGL LOG] matrix not stored update host matrix
[OGL LOG] update_host_mtx : 64 ms
[OGL LOG] matrix is not yet sorted, compute sorting idxs
[OGL LOG] compute_sort : 3640 ms
[OGL LOG] matrix is not yet sorted, sorting host matrix
[OGL LOG] sort_host_mtx_sparsity_pattern : 84 ms
[OGL LOG] sort_host_mtx : 48 ms
[OGL LOG] init_preconditioner : 0 ms
[OGL LOG] solve : 192 ms
nonecudaGKOIR:  Solving for p, Initial residual = 1, Final residual = 1.1651e-05, No Iterations 3
linear solve p 4926303
time step continuity errors : sum local = 6.88572e-09, global = 2.28024e-21, cumulative = 2.28024e-21
[OGL LOG] init_host_sparsity_pattern : 113 ms
[OGL LOG] matrix not stored update host matrix
[OGL LOG] update_host_mtx : 62 ms
[OGL LOG] matrix is not yet sorted, sorting host matrix
[OGL LOG] sort_host_mtx_sparsity_pattern : 86 ms
[OGL LOG] sort_host_mtx : 42 ms
[OGL LOG] init_preconditioner : 0 ms
[OGL LOG] solve : 192 ms
nonecudaGKOIR:  Solving for p, Initial residual = 0.735658, Final residual = 5.90073e-06, No Iterations 3
linear solve p 522687
time step continuity errors : sum local = 4.58237e-09, global = 8.84382e-21, cumulative = 1.11241e-20
ExecutionTime = 7.38 s  ClockTime = 7 s

Time = 0.002

Courant Number mean: 0.0422934 max: 0.566001
DILUPBiCGStab:  Solving for Ux, Initial residual = 0.148658, Final residual = 0.000720402, No Iterations 5
DILUPBiCGStab:  Solving for Uy, Initial residual = 0.373404, Final residual = 0.00156877, No Iterations 5
DILUPBiCGStab:  Solving for Uz, Initial residual = 0.986188, Final residual = 0.0047977, No Iterations 5
linear solve U 414661
[OGL LOG] init_host_sparsity_pattern : 111 ms
[OGL LOG] matrix not stored update host matrix
[OGL LOG] update_host_mtx : 54 ms
[OGL LOG] matrix is not yet sorted, sorting host matrix
[OGL LOG] sort_host_mtx_sparsity_pattern : 83 ms
[OGL LOG] sort_host_mtx : 43 ms
[OGL LOG] init_preconditioner : 0 ms
[OGL LOG] solve : 192 ms
nonecudaGKOIR:  Solving for p, Initial residual = 0.69968, Final residual = 3.51159e-06, No Iterations 3
linear solve p 510394
time step continuity errors : sum local = 3.10116e-09, global = 7.86511e-21, cumulative = 1.89892e-20
[OGL LOG] init_host_sparsity_pattern : 111 ms
[OGL LOG] matrix not stored update host matrix
[OGL LOG] update_host_mtx : 54 ms
[OGL LOG] matrix is not yet sorted, sorting host matrix
[OGL LOG] sort_host_mtx_sparsity_pattern : 78 ms
[OGL LOG] sort_host_mtx : 42 ms
[OGL LOG] init_preconditioner : 0 ms
[OGL LOG] solve : 195 ms
nonecudaGKOIR:  Solving for p, Initial residual = 0.630557, Final residual = 3.08741e-06, No Iterations 3
linear solve p 508597
time step continuity errors : sum local = 2.78534e-09, global = 9.38364e-22, cumulative = 1.99275e-20
ExecutionTime = 9.07 s  ClockTime = 9 s

Time = 0.003

Courant Number mean: 0.063525 max: 0.668455
DILUPBiCGStab:  Solving for Ux, Initial residual = 0.0539123, Final residual = 0.00021387, No Iterations 5
DILUPBiCGStab:  Solving for Uy, Initial residual = 0.130263, Final residual = 0.000491829, No Iterations 5
DILUPBiCGStab:  Solving for Uz, Initial residual = 0.610365, Final residual = 0.00275649, No Iterations 5
linear solve U 395761
[OGL LOG] init_host_sparsity_pattern : 111 ms
[OGL LOG] matrix not stored update host matrix
[OGL LOG] update_host_mtx : 54 ms
[OGL LOG] matrix is not yet sorted, sorting host matrix
[OGL LOG] sort_host_mtx_sparsity_pattern : 78 ms
[OGL LOG] sort_host_mtx : 43 ms
[OGL LOG] init_preconditioner : 0 ms
[OGL LOG] solve : 196 ms
nonecudaGKOIR:  Solving for p, Initial residual = 0.65883, Final residual = 2.48065e-06, No Iterations 3
linear solve p 509235
time step continuity errors : sum local = 1.62219e-09, global = 1.64768e-20, cumulative = 3.64044e-20
[OGL LOG] init_host_sparsity_pattern : 114 ms
[OGL LOG] matrix not stored update host matrix
[OGL LOG] update_host_mtx : 56 ms
[OGL LOG] matrix is not yet sorted, sorting host matrix
[OGL LOG] sort_host_mtx_sparsity_pattern : 78 ms
[OGL LOG] sort_host_mtx : 43 ms
[OGL LOG] init_preconditioner : 0 ms
[OGL LOG] solve : 200 ms
nonecudaGKOIR:  Solving for p, Initial residual = 0.614094, Final residual = 2.08024e-06, No Iterations 3
linear solve p 519461
time step continuity errors : sum local = 1.32064e-09, global = -7.36862e-21, cumulative = 2.90358e-20
ExecutionTime = 10.73 s  ClockTime = 11 s

Time = 0.004

Courant Number mean: 0.0745209 max: 0.679248
DILUPBiCGStab:  Solving for Ux, Initial residual = 0.0288356, Final residual = 0.000105402, No Iterations 5
DILUPBiCGStab:  Solving for Uy, Initial residual = 0.0884863, Final residual = 0.000296689, No Iterations 5
DILUPBiCGStab:  Solving for Uz, Initial residual = 0.323053, Final residual = 0.00117269, No Iterations 5
linear solve U 393849
[OGL LOG] init_host_sparsity_pattern : 112 ms
[OGL LOG] matrix not stored update host matrix
[OGL LOG] update_host_mtx : 54 ms
[OGL LOG] matrix is not yet sorted, sorting host matrix
[OGL LOG] sort_host_mtx_sparsity_pattern : 78 ms
[OGL LOG] sort_host_mtx : 43 ms
[OGL LOG] init_preconditioner : 0 ms
[OGL LOG] solve : 192 ms
nonecudaGKOIR:  Solving for p, Initial residual = 0.45717, Final residual = 1.60837e-06, No Iterations 3
linear solve p 507287
time step continuity errors : sum local = 9.01316e-10, global = -2.15969e-20, cumulative = 7.43889e-21
[OGL LOG] init_host_sparsity_pattern : 114 ms
[OGL LOG] matrix not stored update host matrix
[OGL LOG] update_host_mtx : 58 ms
[OGL LOG] matrix is not yet sorted, sorting host matrix
[OGL LOG] sort_host_mtx_sparsity_pattern : 83 ms
[OGL LOG] sort_host_mtx : 43 ms
[OGL LOG] init_preconditioner : 0 ms
[OGL LOG] solve : 179 ms
nonecudaGKOIR:  Solving for p, Initial residual = 0.393372, Final residual = 1.28202e-06, No Iterations 3
linear solve p 503605
time step continuity errors : sum local = 7.27167e-10, global = -1.02296e-20, cumulative = -2.79073e-21
ExecutionTime = 12.38 s  ClockTime = 12 s

Time = 0.005

Courant Number mean: 0.0833976 max: 0.689392
DILUPBiCGStab:  Solving for Ux, Initial residual = 0.0210203, Final residual = 6.37535e-05, No Iterations 5
DILUPBiCGStab:  Solving for Uy, Initial residual = 0.0480487, Final residual = 0.000107439, No Iterations 5
DILUPBiCGStab:  Solving for Uz, Initial residual = 0.123642, Final residual = 0.000602754, No Iterations 5
linear solve U 398986
[OGL LOG] init_host_sparsity_pattern : 111 ms
[OGL LOG] matrix not stored update host matrix
[OGL LOG] update_host_mtx : 54 ms
[OGL LOG] matrix is not yet sorted, sorting host matrix
[OGL LOG] sort_host_mtx_sparsity_pattern : 78 ms
[OGL LOG] sort_host_mtx : 45 ms
[OGL LOG] init_preconditioner : 0 ms
[OGL LOG] solve : 201 ms
nonecudaGKOIR:  Solving for p, Initial residual = 0.37361, Final residual = 1.19528e-06, No Iterations 3
linear solve p 520118
time step continuity errors : sum local = 5.37253e-10, global = 9.70548e-21, cumulative = 6.91475e-21
[OGL LOG] init_host_sparsity_pattern : 112 ms
[OGL LOG] matrix not stored update host matrix
[OGL LOG] update_host_mtx : 54 ms
[OGL LOG] matrix is not yet sorted, sorting host matrix
[OGL LOG] sort_host_mtx_sparsity_pattern : 83 ms
[OGL LOG] sort_host_mtx : 43 ms
[OGL LOG] init_preconditioner : 0 ms
[OGL LOG] solve : 160 ms
nonecudaGKOIR:  Solving for p, Initial residual = 0.324783, Final residual = 9.70707e-05, No Iterations 2
linear solve p 479324
time step continuity errors : sum local = 4.32317e-08, global = -2.10212e-20, cumulative = -1.41065e-20
ExecutionTime = 14.04 s  ClockTime = 14 s

Time = 0.006

Courant Number mean: 0.0901388 max: 0.695122
DILUPBiCGStab:  Solving for Ux, Initial residual = 0.0146314, Final residual = 3.89613e-05, No Iterations 5
DILUPBiCGStab:  Solving for Uy, Initial residual = 0.0378474, Final residual = 8.06928e-05, No Iterations 5
DILUPBiCGStab:  Solving for Uz, Initial residual = 0.10196, Final residual = 0.000380437, No Iterations 5
linear solve U 395908
[OGL LOG] init_host_sparsity_pattern : 111 ms
[OGL LOG] matrix not stored update host matrix
[OGL LOG] update_host_mtx : 54 ms
[OGL LOG] matrix is not yet sorted, sorting host matrix
[OGL LOG] sort_host_mtx_sparsity_pattern : 78 ms
[OGL LOG] sort_host_mtx : 45 ms
[OGL LOG] init_preconditioner : 0 ms
[OGL LOG] solve : 150 ms
nonecudaGKOIR:  Solving for p, Initial residual = 0.240264, Final residual = 6.59363e-05, No Iterations 2
linear solve p 465065
time step continuity errors : sum local = 2.86464e-08, global = 1.16792e-20, cumulative = -2.42729e-21
[OGL LOG] init_host_sparsity_pattern : 111 ms
[OGL LOG] matrix not stored update host matrix
[OGL LOG] update_host_mtx : 54 ms
[OGL LOG] matrix is not yet sorted, sorting host matrix
[OGL LOG] sort_host_mtx_sparsity_pattern : 78 ms
[OGL LOG] sort_host_mtx : 43 ms
[OGL LOG] init_preconditioner : 0 ms
[OGL LOG] solve : 150 ms
nonecudaGKOIR:  Solving for p, Initial residual = 0.201955, Final residual = 5.6666e-05, No Iterations 2
linear solve p 463910
time step continuity errors : sum local = 2.46636e-08, global = 2.11926e-20, cumulative = 1.87653e-20
ExecutionTime = 15.6 s  ClockTime = 15 s

Time = 0.007

Courant Number mean: 0.0957224 max: 0.698935
DILUPBiCGStab:  Solving for Ux, Initial residual = 0.0118052, Final residual = 2.49096e-05, No Iterations 5
DILUPBiCGStab:  Solving for Uy, Initial residual = 0.0277614, Final residual = 4.64343e-05, No Iterations 5
DILUPBiCGStab:  Solving for Uz, Initial residual = 0.0558673, Final residual = 0.000134891, No Iterations 5
linear solve U 395187
[OGL LOG] init_host_sparsity_pattern : 111 ms
[OGL LOG] matrix not stored update host matrix
[OGL LOG] update_host_mtx : 54 ms
[OGL LOG] matrix is not yet sorted, sorting host matrix
[OGL LOG] sort_host_mtx_sparsity_pattern : 78 ms
[OGL LOG] sort_host_mtx : 43 ms
[OGL LOG] init_preconditioner : 0 ms
[OGL LOG] solve : 151 ms
nonecudaGKOIR:  Solving for p, Initial residual = 0.179413, Final residual = 4.6832e-05, No Iterations 2
linear solve p 470718
time step continuity errors : sum local = 1.88846e-08, global = -6.67249e-21, cumulative = 1.20929e-20
[OGL LOG] init_host_sparsity_pattern : 111 ms
[OGL LOG] matrix not stored update host matrix
[OGL LOG] update_host_mtx : 54 ms
[OGL LOG] matrix is not yet sorted, sorting host matrix
[OGL LOG] sort_host_mtx_sparsity_pattern : 78 ms
[OGL LOG] sort_host_mtx : 43 ms
[OGL LOG] init_preconditioner : 0 ms
[OGL LOG] solve : 151 ms
nonecudaGKOIR:  Solving for p, Initial residual = 0.151422, Final residual = 3.92257e-05, No Iterations 2
linear solve p 465077
time step continuity errors : sum local = 1.57989e-08, global = 3.63762e-21, cumulative = 1.57305e-20
ExecutionTime = 17.17 s  ClockTime = 17 s

Time = 0.008

Courant Number mean: 0.100393 max: 0.70202
DILUPBiCGStab:  Solving for Ux, Initial residual = 0.00946009, Final residual = 1.82535e-05, No Iterations 5
DILUPBiCGStab:  Solving for Uy, Initial residual = 0.0229659, Final residual = 3.19416e-05, No Iterations 5
DILUPBiCGStab:  Solving for Uz, Initial residual = 0.0492201, Final residual = 0.000134892, No Iterations 5
linear solve U 398629
[OGL LOG] init_host_sparsity_pattern : 111 ms
[OGL LOG] matrix not stored update host matrix
[OGL LOG] update_host_mtx : 54 ms
[OGL LOG] matrix is not yet sorted, sorting host matrix
[OGL LOG] sort_host_mtx_sparsity_pattern : 78 ms
[OGL LOG] sort_host_mtx : 43 ms
[OGL LOG] init_preconditioner : 0 ms
[OGL LOG] solve : 147 ms
nonecudaGKOIR:  Solving for p, Initial residual = 0.120524, Final residual = 2.9678e-05, No Iterations 2
linear solve p 461549
time step continuity errors : sum local = 1.1692e-08, global = 3.15492e-20, cumulative = 4.72797e-20
[OGL LOG] init_host_sparsity_pattern : 116 ms
[OGL LOG] matrix not stored update host matrix
[OGL LOG] update_host_mtx : 58 ms
[OGL LOG] matrix is not yet sorted, sorting host matrix
[OGL LOG] sort_host_mtx_sparsity_pattern : 83 ms
[OGL LOG] sort_host_mtx : 43 ms
[OGL LOG] init_preconditioner : 0 ms
[OGL LOG] solve : 145 ms
nonecudaGKOIR:  Solving for p, Initial residual = 0.100116, Final residual = 2.53208e-05, No Iterations 2
linear solve p 472431
time step continuity errors : sum local = 9.97432e-09, global = 5.1183e-22, cumulative = 4.77915e-20
ExecutionTime = 18.74 s  ClockTime = 19 s

Time = 0.009

Courant Number mean: 0.104394 max: 0.704236
DILUPBiCGStab:  Solving for Ux, Initial residual = 0.0079108, Final residual = 1.11914e-05, No Iterations 5
DILUPBiCGStab:  Solving for Uy, Initial residual = 0.0189877, Final residual = 2.5996e-05, No Iterations 5
DILUPBiCGStab:  Solving for Uz, Initial residual = 0.0365771, Final residual = 7.72211e-05, No Iterations 5
linear solve U 397863
[OGL LOG] init_host_sparsity_pattern : 111 ms
[OGL LOG] matrix not stored update host matrix
[OGL LOG] update_host_mtx : 54 ms
[OGL LOG] matrix is not yet sorted, sorting host matrix
[OGL LOG] sort_host_mtx_sparsity_pattern : 78 ms
[OGL LOG] sort_host_mtx : 43 ms
[OGL LOG] init_preconditioner : 0 ms
[OGL LOG] solve : 151 ms
nonecudaGKOIR:  Solving for p, Initial residual = 0.0892925, Final residual = 2.05844e-05, No Iterations 2
linear solve p 464173
time step continuity errors : sum local = 7.94579e-09, global = 1.37744e-20, cumulative = 6.15659e-20
[OGL LOG] init_host_sparsity_pattern : 112 ms
[OGL LOG] matrix not stored update host matrix
[OGL LOG] update_host_mtx : 57 ms
[OGL LOG] matrix is not yet sorted, sorting host matrix
[OGL LOG] sort_host_mtx_sparsity_pattern : 83 ms
[OGL LOG] sort_host_mtx : 43 ms
[OGL LOG] init_preconditioner : 0 ms
[OGL LOG] solve : 145 ms
nonecudaGKOIR:  Solving for p, Initial residual = 0.0746578, Final residual = 1.63708e-05, No Iterations 2
linear solve p 469032
time step continuity errors : sum local = 6.32236e-09, global = -6.80669e-21, cumulative = 5.47592e-20
ExecutionTime = 20.32 s  ClockTime = 20 s

Time = 0.01

Courant Number mean: 0.107876 max: 0.706139
DILUPBiCGStab:  Solving for Ux, Initial residual = 0.00674908, Final residual = 8.85862e-06, No Iterations 5
DILUPBiCGStab:  Solving for Uy, Initial residual = 0.0162301, Final residual = 1.41005e-05, No Iterations 5
DILUPBiCGStab:  Solving for Uz, Initial residual = 0.0326879, Final residual = 5.95256e-05, No Iterations 5
linear solve U 401178
[OGL LOG] init_host_sparsity_pattern : 111 ms
[OGL LOG] matrix not stored update host matrix
[OGL LOG] update_host_mtx : 54 ms
[OGL LOG] matrix is not yet sorted, sorting host matrix
[OGL LOG] sort_host_mtx_sparsity_pattern : 78 ms
[OGL LOG] sort_host_mtx : 43 ms
[OGL LOG] init_preconditioner : 0 ms
[OGL LOG] solve : 150 ms
nonecudaGKOIR:  Solving for p, Initial residual = 0.0613465, Final residual = 1.37805e-05, No Iterations 2
linear solve p 463227
time step continuity errors : sum local = 5.24856e-09, global = -1.11796e-21, cumulative = 5.36413e-20
[OGL LOG] init_host_sparsity_pattern : 111 ms
[OGL LOG] matrix not stored update host matrix
[OGL LOG] update_host_mtx : 56 ms
[OGL LOG] matrix is not yet sorted, sorting host matrix
[OGL LOG] sort_host_mtx_sparsity_pattern : 78 ms
[OGL LOG] sort_host_mtx : 43 ms
[OGL LOG] init_preconditioner : 0 ms
[OGL LOG] solve : 150 ms
nonecudaGKOIR:  Solving for p, Initial residual = 0.0509849, Final residual = 1.04119e-05, No Iterations 2
linear solve p 465266
time step continuity errors : sum local = 3.96602e-09, global = 2.72605e-20, cumulative = 8.09018e-20
ExecutionTime = 21.89 s  ClockTime = 22 s

End

