/*---------------------------------------------------------------------------*\
  =========                 |
  \\      /  F ield         | OpenFOAM: The Open Source CFD Toolbox
   \\    /   O peration     | Website:  https://openfoam.org
    \\  /    A nd           | Version:  8
     \\/     M anipulation  |
\*---------------------------------------------------------------------------*/
Build  : 8-40a5a48f630f
Exec   : icoFoam
Date   : Jul 28 2021
Time   : 13:43:04
Host   : "uc2n449.localdomain"
PID    : 1434850
I/O    : uncollated
Case   : /pfs/data5/home/kit/scc/nq7776/code/OBR/lidDrivenCavity3D/Variation_mesh/70/Variation_matrix_solver/BiCGStab_NoPrecond_OMP/base
nProcs : 1
sigFpe : Enabling floating point exception trapping (FOAM_SIGFPE).
fileModificationChecking : Monitoring run-time modified files using timeStampMaster (fileModificationSkew 10)
allowSystemOperations : Allowing user-supplied system call operations

// * * * * * * * * * * * * * * * * * * * * * * * * * * * * * * * * * * * * * //
Create time

Create mesh for time = 0

Reading transportProperties

Reading field p

Reading field U

Reading/calculating face flux field phi


Starting time loop

Time = 0.001

Courant Number mean: 0 max: 0
nonePBiCGStab:  Solving for Ux, Initial residual = 1, Final residual = 0.0584718, No Iterations 5
nonePBiCGStab:  Solving for Uy, Initial residual = 0, Final residual = 0, No Iterations 0
nonePBiCGStab:  Solving for Uz, Initial residual = 0, Final residual = 0, No Iterations 0
linear solve U 86
[OGL LOG] init_host_sparsity_pattern : 97 ms
[OGL LOG] matrix not stored update host matrix
[OGL LOG] update_host_mtx : 50 ms
[OGL LOG] matrix is not yet sorted, compute sorting idxs
[OGL LOG] compute_sort : 2940 ms
[OGL LOG] matrix is not yet sorted, sorting host matrix
[OGL LOG] sort_host_mtx_sparsity_pattern : 70 ms
[OGL LOG] sort_host_mtx : 42 ms
[OGL LOG] init_preconditioner : 0 ms
[OGL LOG] solve : 3294 ms
noneompGKOBiCGStab:  Solving for p, Initial residual = 1, Final residual = 9.30018e-05, No Iterations 461
linear solve p 6588
time step continuity errors : sum local = 3.82734e-07, global = -7.41609e-21, cumulative = -7.41609e-21
[OGL LOG] init_host_sparsity_pattern : 94 ms
[OGL LOG] matrix not stored update host matrix
[OGL LOG] update_host_mtx : 50 ms
[OGL LOG] matrix is not yet sorted, sorting host matrix
[OGL LOG] sort_host_mtx_sparsity_pattern : 72 ms
[OGL LOG] sort_host_mtx : 35 ms
[OGL LOG] init_preconditioner : 0 ms
[OGL LOG] solve : 3199 ms
noneompGKOBiCGStab:  Solving for p, Initial residual = 0.682644, Final residual = 8.54763e-05, No Iterations 444
linear solve p 3502
time step continuity errors : sum local = 3.64302e-06, global = 2.34012e-21, cumulative = -5.07597e-21
ExecutionTime = 263.75 s  ClockTime = 12 s

Time = 0.002

Courant Number mean: 0.0344624 max: 0.514719
nonePBiCGStab:  Solving for Ux, Initial residual = 0.149361, Final residual = 0.0244679, No Iterations 5
nonePBiCGStab:  Solving for Uy, Initial residual = 0.378085, Final residual = 0.0580246, No Iterations 5
nonePBiCGStab:  Solving for Uz, Initial residual = 0.955967, Final residual = 0.188984, No Iterations 5
linear solve U 172
[OGL LOG] init_host_sparsity_pattern : 92 ms
[OGL LOG] matrix not stored update host matrix
[OGL LOG] update_host_mtx : 48 ms
[OGL LOG] matrix is not yet sorted, sorting host matrix
[OGL LOG] sort_host_mtx_sparsity_pattern : 71 ms
[OGL LOG] sort_host_mtx : 34 ms
[OGL LOG] init_preconditioner : 0 ms
[OGL LOG] solve : 3245 ms
noneompGKOBiCGStab:  Solving for p, Initial residual = 0.684139, Final residual = 9.00329e-05, No Iterations 413
linear solve p 3541
time step continuity errors : sum local = 1.33897e-07, global = 2.8741e-21, cumulative = -2.20187e-21
[OGL LOG] init_host_sparsity_pattern : 90 ms
[OGL LOG] matrix not stored update host matrix
[OGL LOG] update_host_mtx : 44 ms
[OGL LOG] matrix is not yet sorted, sorting host matrix
[OGL LOG] sort_host_mtx_sparsity_pattern : 70 ms
[OGL LOG] sort_host_mtx : 34 ms
[OGL LOG] init_preconditioner : 0 ms
[OGL LOG] solve : 2919 ms
noneompGKOBiCGStab:  Solving for p, Initial residual = 0.602255, Final residual = 9.64932e-05, No Iterations 407
linear solve p 3207
time step continuity errors : sum local = 2.78707e-06, global = -3.9372e-21, cumulative = -6.13907e-21
ExecutionTime = 510.94 s  ClockTime = 19 s

Time = 0.003

Courant Number mean: 0.0532131 max: 0.605882
nonePBiCGStab:  Solving for Ux, Initial residual = 0.0556277, Final residual = 0.00752329, No Iterations 5
nonePBiCGStab:  Solving for Uy, Initial residual = 0.138548, Final residual = 0.0251398, No Iterations 5
nonePBiCGStab:  Solving for Uz, Initial residual = 0.507282, Final residual = 0.122787, No Iterations 5
linear solve U 173
[OGL LOG] init_host_sparsity_pattern : 95 ms
[OGL LOG] matrix not stored update host matrix
[OGL LOG] update_host_mtx : 50 ms
[OGL LOG] matrix is not yet sorted, sorting host matrix
[OGL LOG] sort_host_mtx_sparsity_pattern : 74 ms
[OGL LOG] sort_host_mtx : 37 ms
[OGL LOG] init_preconditioner : 0 ms
[OGL LOG] solve : 3236 ms
noneompGKOBiCGStab:  Solving for p, Initial residual = 0.616475, Final residual = 9.89901e-05, No Iterations 414
linear solve p 3545
time step continuity errors : sum local = 2.90791e-07, global = 3.19791e-21, cumulative = -2.94115e-21
[OGL LOG] init_host_sparsity_pattern : 92 ms
[OGL LOG] matrix not stored update host matrix
[OGL LOG] update_host_mtx : 47 ms
[OGL LOG] matrix is not yet sorted, sorting host matrix
[OGL LOG] sort_host_mtx_sparsity_pattern : 70 ms
[OGL LOG] sort_host_mtx : 34 ms
[OGL LOG] init_preconditioner : 0 ms
[OGL LOG] solve : 2750 ms
noneompGKOBiCGStab:  Solving for p, Initial residual = 0.547369, Final residual = 9.07457e-05, No Iterations 350
linear solve p 3046
time step continuity errors : sum local = 2.79018e-05, global = 7.38974e-21, cumulative = 4.44859e-21
ExecutionTime = 751.04 s  ClockTime = 26 s

Time = 0.004

Courant Number mean: 0.063792 max: 0.623603
nonePBiCGStab:  Solving for Ux, Initial residual = 0.0338198, Final residual = 0.00523027, No Iterations 5
nonePBiCGStab:  Solving for Uy, Initial residual = 0.0907032, Final residual = 0.0150105, No Iterations 5
nonePBiCGStab:  Solving for Uz, Initial residual = 0.283173, Final residual = 0.0602509, No Iterations 5
linear solve U 171
[OGL LOG] init_host_sparsity_pattern : 93 ms
[OGL LOG] matrix not stored update host matrix
[OGL LOG] update_host_mtx : 50 ms
[OGL LOG] matrix is not yet sorted, sorting host matrix
[OGL LOG] sort_host_mtx_sparsity_pattern : 71 ms
[OGL LOG] sort_host_mtx : 35 ms
[OGL LOG] init_preconditioner : 0 ms
[OGL LOG] solve : 3177 ms
noneompGKOBiCGStab:  Solving for p, Initial residual = 0.475942, Final residual = 9.68908e-05, No Iterations 404
linear solve p 3472
time step continuity errors : sum local = 4.46168e-06, global = 3.07755e-21, cumulative = 7.52614e-21
[OGL LOG] init_host_sparsity_pattern : 90 ms
[OGL LOG] matrix not stored update host matrix
[OGL LOG] update_host_mtx : 44 ms
[OGL LOG] matrix is not yet sorted, sorting host matrix
[OGL LOG] sort_host_mtx_sparsity_pattern : 67 ms
[OGL LOG] sort_host_mtx : 35 ms
[OGL LOG] init_preconditioner : 0 ms
[OGL LOG] solve : 1354 ms
noneompGKOBiCGStab:  Solving for p, Initial residual = 0.394966, Final residual = 8.96087e-05, No Iterations 173
linear solve p 1635
time step continuity errors : sum local = 8.62857e-08, global = 1.4009e-21, cumulative = 8.92703e-21
ExecutionTime = 933.17 s  ClockTime = 31 s

Time = 0.005

Courant Number mean: 0.072232 max: 0.634566
nonePBiCGStab:  Solving for Ux, Initial residual = 0.0243403, Final residual = 0.00315197, No Iterations 5
nonePBiCGStab:  Solving for Uy, Initial residual = 0.0592101, Final residual = 0.00949518, No Iterations 5
nonePBiCGStab:  Solving for Uz, Initial residual = 0.171148, Final residual = 0.0442361, No Iterations 5
linear solve U 172
[OGL LOG] init_host_sparsity_pattern : 90 ms
[OGL LOG] matrix not stored update host matrix
[OGL LOG] update_host_mtx : 47 ms
[OGL LOG] matrix is not yet sorted, sorting host matrix
[OGL LOG] sort_host_mtx_sparsity_pattern : 70 ms
[OGL LOG] sort_host_mtx : 34 ms
[OGL LOG] init_preconditioner : 0 ms
[OGL LOG] solve : 1391 ms
noneompGKOBiCGStab:  Solving for p, Initial residual = 0.438219, Final residual = 9.40013e-05, No Iterations 178
linear solve p 1679
time step continuity errors : sum local = 5.57534e-08, global = 3.51786e-21, cumulative = 1.24449e-20
[OGL LOG] init_host_sparsity_pattern : 97 ms
[OGL LOG] matrix not stored update host matrix
[OGL LOG] update_host_mtx : 50 ms
[OGL LOG] matrix is not yet sorted, sorting host matrix
[OGL LOG] sort_host_mtx_sparsity_pattern : 70 ms
[OGL LOG] sort_host_mtx : 35 ms
[OGL LOG] init_preconditioner : 0 ms
[OGL LOG] solve : 1330 ms
noneompGKOBiCGStab:  Solving for p, Initial residual = 0.374338, Final residual = 9.99246e-05, No Iterations 170
linear solve p 1628
time step continuity errors : sum local = 6.69214e-08, global = 5.60288e-21, cumulative = 1.80478e-20
ExecutionTime = 1043.28 s  ClockTime = 35 s

Time = 0.006

Courant Number mean: 0.0788715 max: 0.641175
nonePBiCGStab:  Solving for Ux, Initial residual = 0.0183391, Final residual = 0.0014574, No Iterations 5
nonePBiCGStab:  Solving for Uy, Initial residual = 0.0446114, Final residual = 0.00336262, No Iterations 5
nonePBiCGStab:  Solving for Uz, Initial residual = 0.122882, Final residual = 0.0201433, No Iterations 5
linear solve U 176
[OGL LOG] init_host_sparsity_pattern : 93 ms
[OGL LOG] matrix not stored update host matrix
[OGL LOG] update_host_mtx : 50 ms
[OGL LOG] matrix is not yet sorted, sorting host matrix
[OGL LOG] sort_host_mtx_sparsity_pattern : 70 ms
[OGL LOG] sort_host_mtx : 34 ms
[OGL LOG] init_preconditioner : 0 ms
[OGL LOG] solve : 1274 ms
noneompGKOBiCGStab:  Solving for p, Initial residual = 0.319985, Final residual = 4.92402e-05, No Iterations 163
linear solve p 1569
time step continuity errors : sum local = 6.81625e-08, global = -1.07122e-21, cumulative = 1.69765e-20
[OGL LOG] init_host_sparsity_pattern : 97 ms
[OGL LOG] matrix not stored update host matrix
[OGL LOG] update_host_mtx : 50 ms
[OGL LOG] matrix is not yet sorted, sorting host matrix
[OGL LOG] sort_host_mtx_sparsity_pattern : 70 ms
[OGL LOG] sort_host_mtx : 34 ms
[OGL LOG] init_preconditioner : 0 ms
[OGL LOG] solve : 1220 ms
noneompGKOBiCGStab:  Solving for p, Initial residual = 0.264954, Final residual = 9.64547e-05, No Iterations 156
linear solve p 1518
time step continuity errors : sum local = 6.51063e-08, global = 1.71853e-21, cumulative = 1.86951e-20
ExecutionTime = 1144.36 s  ClockTime = 38 s

Time = 0.007

Courant Number mean: 0.0846016 max: 0.645862
nonePBiCGStab:  Solving for Ux, Initial residual = 0.0143496, Final residual = 0.00105085, No Iterations 5
nonePBiCGStab:  Solving for Uy, Initial residual = 0.034636, Final residual = 0.00267871, No Iterations 5
nonePBiCGStab:  Solving for Uz, Initial residual = 0.0866949, Final residual = 0.0108023, No Iterations 5
linear solve U 174
[OGL LOG] init_host_sparsity_pattern : 97 ms
[OGL LOG] matrix not stored update host matrix
[OGL LOG] update_host_mtx : 50 ms
[OGL LOG] matrix is not yet sorted, sorting host matrix
[OGL LOG] sort_host_mtx_sparsity_pattern : 70 ms
[OGL LOG] sort_host_mtx : 35 ms
[OGL LOG] init_preconditioner : 0 ms
[OGL LOG] solve : 1236 ms
noneompGKOBiCGStab:  Solving for p, Initial residual = 0.267689, Final residual = 9.29324e-05, No Iterations 158
linear solve p 1536
time step continuity errors : sum local = 6.09534e-08, global = -1.7703e-21, cumulative = 1.69248e-20
[OGL LOG] init_host_sparsity_pattern : 94 ms
[OGL LOG] matrix not stored update host matrix
[OGL LOG] update_host_mtx : 50 ms
[OGL LOG] matrix is not yet sorted, sorting host matrix
[OGL LOG] sort_host_mtx_sparsity_pattern : 70 ms
[OGL LOG] sort_host_mtx : 34 ms
[OGL LOG] init_preconditioner : 0 ms
[OGL LOG] solve : 1272 ms
noneompGKOBiCGStab:  Solving for p, Initial residual = 0.223947, Final residual = 9.9946e-05, No Iterations 162
linear solve p 1567
time step continuity errors : sum local = 6.7929e-08, global = 9.92548e-21, cumulative = 2.68503e-20
ExecutionTime = 1246.01 s  ClockTime = 42 s

Time = 0.008

Courant Number mean: 0.0893978 max: 0.649361
nonePBiCGStab:  Solving for Ux, Initial residual = 0.0117033, Final residual = 0.000724644, No Iterations 5
nonePBiCGStab:  Solving for Uy, Initial residual = 0.0276041, Final residual = 0.00143544, No Iterations 5
nonePBiCGStab:  Solving for Uz, Initial residual = 0.0704284, Final residual = 0.00788848, No Iterations 5
linear solve U 175
[OGL LOG] init_host_sparsity_pattern : 97 ms
[OGL LOG] matrix not stored update host matrix
[OGL LOG] update_host_mtx : 50 ms
[OGL LOG] matrix is not yet sorted, sorting host matrix
[OGL LOG] sort_host_mtx_sparsity_pattern : 70 ms
[OGL LOG] sort_host_mtx : 35 ms
[OGL LOG] init_preconditioner : 0 ms
[OGL LOG] solve : 1208 ms
noneompGKOBiCGStab:  Solving for p, Initial residual = 0.198793, Final residual = 9.1738e-05, No Iterations 154
linear solve p 1512
time step continuity errors : sum local = 6.65484e-08, global = -6.40821e-22, cumulative = 2.62094e-20
[OGL LOG] init_host_sparsity_pattern : 94 ms
[OGL LOG] matrix not stored update host matrix
[OGL LOG] update_host_mtx : 50 ms
[OGL LOG] matrix is not yet sorted, sorting host matrix
[OGL LOG] sort_host_mtx_sparsity_pattern : 70 ms
[OGL LOG] sort_host_mtx : 34 ms
[OGL LOG] init_preconditioner : 0 ms
[OGL LOG] solve : 1179 ms
noneompGKOBiCGStab:  Solving for p, Initial residual = 0.165283, Final residual = 9.74893e-05, No Iterations 150
linear solve p 1473
time step continuity errors : sum local = 6.14929e-08, global = 1.25145e-20, cumulative = 3.8724e-20
ExecutionTime = 1342.84 s  ClockTime = 45 s

Time = 0.009

Courant Number mean: 0.0935537 max: 0.652027
nonePBiCGStab:  Solving for Ux, Initial residual = 0.00965811, Final residual = 0.000524612, No Iterations 5
nonePBiCGStab:  Solving for Uy, Initial residual = 0.0231328, Final residual = 0.00121026, No Iterations 5
nonePBiCGStab:  Solving for Uz, Initial residual = 0.0567773, Final residual = 0.00549128, No Iterations 5
linear solve U 174
[OGL LOG] init_host_sparsity_pattern : 97 ms
[OGL LOG] matrix not stored update host matrix
[OGL LOG] update_host_mtx : 50 ms
[OGL LOG] matrix is not yet sorted, sorting host matrix
[OGL LOG] sort_host_mtx_sparsity_pattern : 72 ms
[OGL LOG] sort_host_mtx : 34 ms
[OGL LOG] init_preconditioner : 0 ms
[OGL LOG] solve : 1190 ms
noneompGKOBiCGStab:  Solving for p, Initial residual = 0.161051, Final residual = 9.89326e-05, No Iterations 152
linear solve p 1491
time step continuity errors : sum local = 5.37682e-08, global = 1.6784e-21, cumulative = 4.04024e-20
[OGL LOG] init_host_sparsity_pattern : 94 ms
[OGL LOG] matrix not stored update host matrix
[OGL LOG] update_host_mtx : 50 ms
[OGL LOG] matrix is not yet sorted, sorting host matrix
[OGL LOG] sort_host_mtx_sparsity_pattern : 70 ms
[OGL LOG] sort_host_mtx : 35 ms
[OGL LOG] init_preconditioner : 0 ms
[OGL LOG] solve : 1206 ms
noneompGKOBiCGStab:  Solving for p, Initial residual = 0.134593, Final residual = 9.21879e-05, No Iterations 154
linear solve p 1499
time step continuity errors : sum local = 7.2975e-08, global = 9.07306e-21, cumulative = 4.94754e-20
ExecutionTime = 1439.99 s  ClockTime = 49 s

Time = 0.01

Courant Number mean: 0.0971547 max: 0.654238
nonePBiCGStab:  Solving for Ux, Initial residual = 0.00821069, Final residual = 0.000405916, No Iterations 5
nonePBiCGStab:  Solving for Uy, Initial residual = 0.0193187, Final residual = 0.000719947, No Iterations 5
nonePBiCGStab:  Solving for Uz, Initial residual = 0.0481973, Final residual = 0.00399626, No Iterations 5
linear solve U 174
[OGL LOG] init_host_sparsity_pattern : 103 ms
[OGL LOG] matrix not stored update host matrix
[OGL LOG] update_host_mtx : 50 ms
[OGL LOG] matrix is not yet sorted, sorting host matrix
[OGL LOG] sort_host_mtx_sparsity_pattern : 70 ms
[OGL LOG] sort_host_mtx : 34 ms
[OGL LOG] init_preconditioner : 0 ms
[OGL LOG] solve : 1159 ms
noneompGKOBiCGStab:  Solving for p, Initial residual = 0.121081, Final residual = 9.69821e-05, No Iterations 148
linear solve p 1463
time step continuity errors : sum local = 6.17923e-08, global = 9.01679e-21, cumulative = 5.84922e-20
[OGL LOG] init_host_sparsity_pattern : 94 ms
[OGL LOG] matrix not stored update host matrix
[OGL LOG] update_host_mtx : 50 ms
[OGL LOG] matrix is not yet sorted, sorting host matrix
[OGL LOG] sort_host_mtx_sparsity_pattern : 70 ms
[OGL LOG] sort_host_mtx : 34 ms
[OGL LOG] init_preconditioner : 0 ms
[OGL LOG] solve : 1242 ms
noneompGKOBiCGStab:  Solving for p, Initial residual = 0.10104, Final residual = 9.0226e-05, No Iterations 159
linear solve p 1535
time step continuity errors : sum local = 5.94304e-08, global = -1.02609e-21, cumulative = 5.74661e-20
ExecutionTime = 1537.34 s  ClockTime = 52 s

End

