/*---------------------------------------------------------------------------*\
  =========                 |
  \\      /  F ield         | OpenFOAM: The Open Source CFD Toolbox
   \\    /   O peration     | Website:  https://openfoam.org
    \\  /    A nd           | Version:  8
     \\/     M anipulation  |
\*---------------------------------------------------------------------------*/
Build  : 8-ef60d22ea792
Exec   : icoFoam
Date   : Jul 29 2021
Time   : 07:25:23
Host   : "nla-gpu2.ianm.kit.edu"
PID    : 1952276
I/O    : uncollated
Case   : /home/greole/code/OBR/lidDrivenCavity3D/Variation_mesh/20/Variation_matrix_solver/BiCGStab_NoPrecond_HIP/base
nProcs : 1
sigFpe : Enabling floating point exception trapping (FOAM_SIGFPE).
fileModificationChecking : Monitoring run-time modified files using timeStampMaster (fileModificationSkew 10)
allowSystemOperations : Allowing user-supplied system call operations

// * * * * * * * * * * * * * * * * * * * * * * * * * * * * * * * * * * * * * //
Create time

Create mesh for time = 0

Reading transportProperties

Reading field p

Reading field U

Reading/calculating face flux field phi


Starting time loop

Time = 0.001

Courant Number mean: 0 max: 0
DILUPBiCGStab:  Solving for Ux, Initial residual = 1, Final residual = 1.12203e-10, No Iterations 5
DILUPBiCGStab:  Solving for Uy:  solution singularity
DILUPBiCGStab:  Solving for Uz:  solution singularity
linear solve U 3067
[OGL LOG] init_host_sparsity_pattern : 3 ms
[OGL LOG] matrix not stored update host matrix
[OGL LOG] update_host_mtx : 2 ms
[OGL LOG] matrix is not yet sorted, compute sorting idxs
[OGL LOG] compute_sort : 58 ms
[OGL LOG] matrix is not yet sorted, sorting host matrix
[OGL LOG] sort_host_mtx_sparsity_pattern : 1 ms
[OGL LOG] sort_host_mtx : 0 ms
[OGL LOG] init_preconditioner : 0 ms
[OGL LOG] solve : 70 ms
nonehipGKOBiCGStab:  Solving for p, Initial residual = 1, Final residual = 6.20355e-05, No Iterations 129
linear solve p 561708
time step continuity errors : sum local = 5.92425e-08, global = 2.53945e-22, cumulative = 2.53945e-22
[OGL LOG] init_host_sparsity_pattern : 3 ms
[OGL LOG] matrix not stored update host matrix
[OGL LOG] update_host_mtx : 2 ms
[OGL LOG] matrix is not yet sorted, sorting host matrix
[OGL LOG] sort_host_mtx_sparsity_pattern : 1 ms
[OGL LOG] sort_host_mtx : 0 ms
[OGL LOG] init_preconditioner : 0 ms
[OGL LOG] solve : 36 ms
nonehipGKOBiCGStab:  Solving for p, Initial residual = 0.41197, Final residual = 8.75769e-05, No Iterations 118
linear solve p 45631
time step continuity errors : sum local = 1.4007e-07, global = 1.42755e-20, cumulative = 1.45294e-20
ExecutionTime = 0.76 s  ClockTime = 1 s

Time = 0.002

Courant Number mean: 0.00876247 max: 0.0682839
DILUPBiCGStab:  Solving for Ux, Initial residual = 0.225393, Final residual = 1.40292e-11, No Iterations 5
DILUPBiCGStab:  Solving for Uy, Initial residual = 0.289578, Final residual = 1.19252e-11, No Iterations 5
DILUPBiCGStab:  Solving for Uz, Initial residual = 0.815362, Final residual = 4.10593e-11, No Iterations 5
linear solve U 5180
[OGL LOG] init_host_sparsity_pattern : 3 ms
[OGL LOG] matrix not stored update host matrix
[OGL LOG] update_host_mtx : 1 ms
[OGL LOG] matrix is not yet sorted, sorting host matrix
[OGL LOG] sort_host_mtx_sparsity_pattern : 1 ms
[OGL LOG] sort_host_mtx : 0 ms
[OGL LOG] init_preconditioner : 0 ms
[OGL LOG] solve : 35 ms
nonehipGKOBiCGStab:  Solving for p, Initial residual = 0.212855, Final residual = 9.66196e-05, No Iterations 114
linear solve p 44421
time step continuity errors : sum local = 1.45327e-07, global = -2.34795e-20, cumulative = -8.9501e-21
[OGL LOG] init_host_sparsity_pattern : 3 ms
[OGL LOG] matrix not stored update host matrix
[OGL LOG] update_host_mtx : 2 ms
[OGL LOG] matrix is not yet sorted, sorting host matrix
[OGL LOG] sort_host_mtx_sparsity_pattern : 1 ms
[OGL LOG] sort_host_mtx : 0 ms
[OGL LOG] init_preconditioner : 0 ms
[OGL LOG] solve : 35 ms
nonehipGKOBiCGStab:  Solving for p, Initial residual = 0.12314, Final residual = 8.67991e-05, No Iterations 110
linear solve p 44058
time step continuity errors : sum local = 1.40365e-07, global = -1.48173e-20, cumulative = -2.37674e-20
ExecutionTime = 0.91 s  ClockTime = 1 s

Time = 0.003

Courant Number mean: 0.0142441 max: 0.104363
DILUPBiCGStab:  Solving for Ux, Initial residual = 0.102528, Final residual = 5.82255e-12, No Iterations 5
DILUPBiCGStab:  Solving for Uy, Initial residual = 0.13523, Final residual = 5.20303e-12, No Iterations 5
DILUPBiCGStab:  Solving for Uz, Initial residual = 0.307291, Final residual = 1.85599e-11, No Iterations 5
linear solve U 5134
[OGL LOG] init_host_sparsity_pattern : 3 ms
[OGL LOG] matrix not stored update host matrix
[OGL LOG] update_host_mtx : 2 ms
[OGL LOG] matrix is not yet sorted, sorting host matrix
[OGL LOG] sort_host_mtx_sparsity_pattern : 1 ms
[OGL LOG] sort_host_mtx : 0 ms
[OGL LOG] init_preconditioner : 0 ms
[OGL LOG] solve : 17 ms
nonehipGKOBiCGStab:  Solving for p, Initial residual = 0.0919696, Final residual = 9.51778e-05, No Iterations 54
linear solve p 25848
time step continuity errors : sum local = 7.82387e-08, global = 2.58643e-20, cumulative = 2.0969e-21
[OGL LOG] init_host_sparsity_pattern : 3 ms
[OGL LOG] matrix not stored update host matrix
[OGL LOG] update_host_mtx : 2 ms
[OGL LOG] matrix is not yet sorted, sorting host matrix
[OGL LOG] sort_host_mtx_sparsity_pattern : 1 ms
[OGL LOG] sort_host_mtx : 0 ms
[OGL LOG] init_preconditioner : 0 ms
[OGL LOG] solve : 15 ms
nonehipGKOBiCGStab:  Solving for p, Initial residual = 0.055171, Final residual = 9.7682e-05, No Iterations 48
linear solve p 24191
time step continuity errors : sum local = 1.36527e-07, global = 6.51177e-21, cumulative = 8.60867e-21
ExecutionTime = 0.99 s  ClockTime = 1 s

Time = 0.004

Courant Number mean: 0.0178684 max: 0.123853
DILUPBiCGStab:  Solving for Ux, Initial residual = 0.0604083, Final residual = 2.83891e-12, No Iterations 5
DILUPBiCGStab:  Solving for Uy, Initial residual = 0.0809737, Final residual = 2.51661e-12, No Iterations 5
DILUPBiCGStab:  Solving for Uz, Initial residual = 0.154901, Final residual = 5.70361e-12, No Iterations 5
linear solve U 5133
[OGL LOG] init_host_sparsity_pattern : 3 ms
[OGL LOG] matrix not stored update host matrix
[OGL LOG] update_host_mtx : 2 ms
[OGL LOG] matrix is not yet sorted, sorting host matrix
[OGL LOG] sort_host_mtx_sparsity_pattern : 1 ms
[OGL LOG] sort_host_mtx : 0 ms
[OGL LOG] init_preconditioner : 0 ms
[OGL LOG] solve : 15 ms
nonehipGKOBiCGStab:  Solving for p, Initial residual = 0.0544628, Final residual = 9.16865e-05, No Iterations 50
linear solve p 24427
time step continuity errors : sum local = 1.07972e-07, global = 2.38551e-20, cumulative = 3.24637e-20
[OGL LOG] init_host_sparsity_pattern : 3 ms
[OGL LOG] matrix not stored update host matrix
[OGL LOG] update_host_mtx : 2 ms
[OGL LOG] matrix is not yet sorted, sorting host matrix
[OGL LOG] sort_host_mtx_sparsity_pattern : 1 ms
[OGL LOG] sort_host_mtx : 0 ms
[OGL LOG] init_preconditioner : 0 ms
[OGL LOG] solve : 12 ms
nonehipGKOBiCGStab:  Solving for p, Initial residual = 0.0315769, Final residual = 9.4869e-05, No Iterations 41
linear solve p 21547
time step continuity errors : sum local = 9.77132e-08, global = -2.70926e-20, cumulative = 5.37109e-21
ExecutionTime = 1.07 s  ClockTime = 1 s

Time = 0.005

Courant Number mean: 0.0204634 max: 0.135215
DILUPBiCGStab:  Solving for Ux, Initial residual = 0.0403838, Final residual = 1.59985e-12, No Iterations 5
DILUPBiCGStab:  Solving for Uy, Initial residual = 0.0549848, Final residual = 1.29607e-12, No Iterations 5
DILUPBiCGStab:  Solving for Uz, Initial residual = 0.106948, Final residual = 3.45381e-12, No Iterations 5
linear solve U 5190
[OGL LOG] init_host_sparsity_pattern : 3 ms
[OGL LOG] matrix not stored update host matrix
[OGL LOG] update_host_mtx : 2 ms
[OGL LOG] matrix is not yet sorted, sorting host matrix
[OGL LOG] sort_host_mtx_sparsity_pattern : 1 ms
[OGL LOG] sort_host_mtx : 0 ms
[OGL LOG] init_preconditioner : 0 ms
[OGL LOG] solve : 13 ms
nonehipGKOBiCGStab:  Solving for p, Initial residual = 0.0358159, Final residual = 9.20904e-05, No Iterations 43
linear solve p 22487
time step continuity errors : sum local = 1.2373e-07, global = -1.06781e-20, cumulative = -5.30699e-21
[OGL LOG] init_host_sparsity_pattern : 3 ms
[OGL LOG] matrix not stored update host matrix
[OGL LOG] update_host_mtx : 2 ms
[OGL LOG] matrix is not yet sorted, sorting host matrix
[OGL LOG] sort_host_mtx_sparsity_pattern : 1 ms
[OGL LOG] sort_host_mtx : 0 ms
[OGL LOG] init_preconditioner : 0 ms
[OGL LOG] solve : 13 ms
nonehipGKOBiCGStab:  Solving for p, Initial residual = 0.0202975, Final residual = 8.06248e-05, No Iterations 42
linear solve p 21795
time step continuity errors : sum local = 8.41929e-08, global = -9.04646e-21, cumulative = -1.43534e-20
ExecutionTime = 1.15 s  ClockTime = 1 s

Time = 0.006

Courant Number mean: 0.0225085 max: 0.142365
DILUPBiCGStab:  Solving for Ux, Initial residual = 0.0295568, Final residual = 1.18891e-12, No Iterations 5
DILUPBiCGStab:  Solving for Uy, Initial residual = 0.0406262, Final residual = 8.47117e-13, No Iterations 5
DILUPBiCGStab:  Solving for Uz, Initial residual = 0.0812726, Final residual = 2.38156e-12, No Iterations 5
linear solve U 5245
[OGL LOG] init_host_sparsity_pattern : 3 ms
[OGL LOG] matrix not stored update host matrix
[OGL LOG] update_host_mtx : 2 ms
[OGL LOG] matrix is not yet sorted, sorting host matrix
[OGL LOG] sort_host_mtx_sparsity_pattern : 1 ms
[OGL LOG] sort_host_mtx : 0 ms
[OGL LOG] init_preconditioner : 0 ms
[OGL LOG] solve : 13 ms
nonehipGKOBiCGStab:  Solving for p, Initial residual = 0.0255328, Final residual = 8.02755e-05, No Iterations 43
linear solve p 22240
time step continuity errors : sum local = 1.25313e-07, global = -6.01484e-21, cumulative = -2.03683e-20
[OGL LOG] init_host_sparsity_pattern : 3 ms
[OGL LOG] matrix not stored update host matrix
[OGL LOG] update_host_mtx : 2 ms
[OGL LOG] matrix is not yet sorted, sorting host matrix
[OGL LOG] sort_host_mtx_sparsity_pattern : 1 ms
[OGL LOG] sort_host_mtx : 0 ms
[OGL LOG] init_preconditioner : 0 ms
[OGL LOG] solve : 12 ms
nonehipGKOBiCGStab:  Solving for p, Initial residual = 0.0142351, Final residual = 9.70333e-05, No Iterations 40
linear solve p 21697
time step continuity errors : sum local = 1.19943e-07, global = -1.90893e-20, cumulative = -3.94576e-20
ExecutionTime = 1.22 s  ClockTime = 1 s

Time = 0.007

Courant Number mean: 0.0241616 max: 0.147196
DILUPBiCGStab:  Solving for Ux, Initial residual = 0.0229868, Final residual = 6.70016e-13, No Iterations 5
DILUPBiCGStab:  Solving for Uy, Initial residual = 0.0317573, Final residual = 6.50131e-13, No Iterations 5
DILUPBiCGStab:  Solving for Uz, Initial residual = 0.0649305, Final residual = 1.75068e-12, No Iterations 5
linear solve U 5118
[OGL LOG] init_host_sparsity_pattern : 3 ms
[OGL LOG] matrix not stored update host matrix
[OGL LOG] update_host_mtx : 2 ms
[OGL LOG] matrix is not yet sorted, sorting host matrix
[OGL LOG] sort_host_mtx_sparsity_pattern : 1 ms
[OGL LOG] sort_host_mtx : 0 ms
[OGL LOG] init_preconditioner : 0 ms
[OGL LOG] solve : 13 ms
nonehipGKOBiCGStab:  Solving for p, Initial residual = 0.0187639, Final residual = 7.47603e-05, No Iterations 43
linear solve p 22514
time step continuity errors : sum local = 1.3004e-07, global = -2.75484e-20, cumulative = -6.7006e-20
[OGL LOG] init_host_sparsity_pattern : 3 ms
[OGL LOG] matrix not stored update host matrix
[OGL LOG] update_host_mtx : 2 ms
[OGL LOG] matrix is not yet sorted, sorting host matrix
[OGL LOG] sort_host_mtx_sparsity_pattern : 1 ms
[OGL LOG] sort_host_mtx : 0 ms
[OGL LOG] init_preconditioner : 0 ms
[OGL LOG] solve : 12 ms
nonehipGKOBiCGStab:  Solving for p, Initial residual = 0.0105296, Final residual = 9.70552e-05, No Iterations 38
linear solve p 20902
time step continuity errors : sum local = 1.35379e-07, global = -5.55989e-21, cumulative = -7.25659e-20
ExecutionTime = 1.29 s  ClockTime = 1 s

Time = 0.008

Courant Number mean: 0.0255327 max: 0.150665
DILUPBiCGStab:  Solving for Ux, Initial residual = 0.0184817, Final residual = 3.54322e-13, No Iterations 5
DILUPBiCGStab:  Solving for Uy, Initial residual = 0.0258069, Final residual = 5.05939e-13, No Iterations 5
DILUPBiCGStab:  Solving for Uz, Initial residual = 0.0535852, Final residual = 1.37701e-12, No Iterations 5
linear solve U 5168
[OGL LOG] init_host_sparsity_pattern : 3 ms
[OGL LOG] matrix not stored update host matrix
[OGL LOG] update_host_mtx : 2 ms
[OGL LOG] matrix is not yet sorted, sorting host matrix
[OGL LOG] sort_host_mtx_sparsity_pattern : 1 ms
[OGL LOG] sort_host_mtx : 0 ms
[OGL LOG] init_preconditioner : 0 ms
[OGL LOG] solve : 13 ms
nonehipGKOBiCGStab:  Solving for p, Initial residual = 0.0148636, Final residual = 8.30983e-05, No Iterations 42
linear solve p 22294
time step continuity errors : sum local = 1.44843e-07, global = 1.2033e-20, cumulative = -6.05329e-20
[OGL LOG] init_host_sparsity_pattern : 3 ms
[OGL LOG] matrix not stored update host matrix
[OGL LOG] update_host_mtx : 2 ms
[OGL LOG] matrix is not yet sorted, sorting host matrix
[OGL LOG] sort_host_mtx_sparsity_pattern : 1 ms
[OGL LOG] sort_host_mtx : 0 ms
[OGL LOG] init_preconditioner : 0 ms
[OGL LOG] solve : 12 ms
nonehipGKOBiCGStab:  Solving for p, Initial residual = 0.0084297, Final residual = 9.88865e-05, No Iterations 38
linear solve p 21044
time step continuity errors : sum local = 1.48191e-07, global = 4.01513e-21, cumulative = -5.65177e-20
ExecutionTime = 1.37 s  ClockTime = 1 s

Time = 0.009

Courant Number mean: 0.0266828 max: 0.153283
DILUPBiCGStab:  Solving for Ux, Initial residual = 0.0152471, Final residual = 2.01988e-13, No Iterations 5
DILUPBiCGStab:  Solving for Uy, Initial residual = 0.0215535, Final residual = 3.95621e-13, No Iterations 5
DILUPBiCGStab:  Solving for Uz, Initial residual = 0.0451634, Final residual = 1.08756e-12, No Iterations 5
linear solve U 5173
[OGL LOG] init_host_sparsity_pattern : 3 ms
[OGL LOG] matrix not stored update host matrix
[OGL LOG] update_host_mtx : 2 ms
[OGL LOG] matrix is not yet sorted, sorting host matrix
[OGL LOG] sort_host_mtx_sparsity_pattern : 1 ms
[OGL LOG] sort_host_mtx : 0 ms
[OGL LOG] init_preconditioner : 0 ms
[OGL LOG] solve : 12 ms
nonehipGKOBiCGStab:  Solving for p, Initial residual = 0.012043, Final residual = 8.54999e-05, No Iterations 40
linear solve p 21489
time step continuity errors : sum local = 1.53326e-07, global = 1.68807e-20, cumulative = -3.96371e-20
[OGL LOG] init_host_sparsity_pattern : 3 ms
[OGL LOG] matrix not stored update host matrix
[OGL LOG] update_host_mtx : 2 ms
[OGL LOG] matrix is not yet sorted, sorting host matrix
[OGL LOG] sort_host_mtx_sparsity_pattern : 1 ms
[OGL LOG] sort_host_mtx : 0 ms
[OGL LOG] init_preconditioner : 0 ms
[OGL LOG] solve : 11 ms
nonehipGKOBiCGStab:  Solving for p, Initial residual = 0.00693416, Final residual = 9.89421e-05, No Iterations 36
linear solve p 20344
time step continuity errors : sum local = 1.56784e-07, global = -2.93029e-20, cumulative = -6.89399e-20
ExecutionTime = 1.44 s  ClockTime = 1 s

Time = 0.01

Courant Number mean: 0.0276675 max: 0.155336
DILUPBiCGStab:  Solving for Ux, Initial residual = 0.0129028, Final residual = 1.30918e-13, No Iterations 5
DILUPBiCGStab:  Solving for Uy, Initial residual = 0.0183681, Final residual = 3.10317e-13, No Iterations 5
DILUPBiCGStab:  Solving for Uz, Initial residual = 0.0387754, Final residual = 8.79512e-13, No Iterations 5
linear solve U 5106
[OGL LOG] init_host_sparsity_pattern : 3 ms
[OGL LOG] matrix not stored update host matrix
[OGL LOG] update_host_mtx : 2 ms
[OGL LOG] matrix is not yet sorted, sorting host matrix
[OGL LOG] sort_host_mtx_sparsity_pattern : 1 ms
[OGL LOG] sort_host_mtx : 0 ms
[OGL LOG] init_preconditioner : 0 ms
[OGL LOG] solve : 13 ms
nonehipGKOBiCGStab:  Solving for p, Initial residual = 0.0100188, Final residual = 9.90258e-05, No Iterations 41
linear solve p 21700
time step continuity errors : sum local = 1.70185e-07, global = 2.75385e-20, cumulative = -4.14014e-20
[OGL LOG] init_host_sparsity_pattern : 3 ms
[OGL LOG] matrix not stored update host matrix
[OGL LOG] update_host_mtx : 2 ms
[OGL LOG] matrix is not yet sorted, sorting host matrix
[OGL LOG] sort_host_mtx_sparsity_pattern : 1 ms
[OGL LOG] sort_host_mtx : 0 ms
[OGL LOG] init_preconditioner : 0 ms
[OGL LOG] solve : 11 ms
nonehipGKOBiCGStab:  Solving for p, Initial residual = 0.0058579, Final residual = 8.86921e-05, No Iterations 36
linear solve p 20339
time step continuity errors : sum local = 1.53365e-07, global = -7.94796e-21, cumulative = -4.93494e-20
ExecutionTime = 1.51 s  ClockTime = 1 s

End

