/*---------------------------------------------------------------------------*\
  =========                 |
  \\      /  F ield         | OpenFOAM: The Open Source CFD Toolbox
   \\    /   O peration     | Website:  https://openfoam.org
    \\  /    A nd           | Version:  8
     \\/     M anipulation  |
\*---------------------------------------------------------------------------*/
Build  : 8-14d69e1ee166
Exec   : icoFoam
Date   : Jul 29 2021
Time   : 09:02:52
Host   : "guyot.icl.utk.edu"
PID    : 208546
I/O    : uncollated
Case   : /home/greole/code/OBR/lidDrivenCavity3D/Variation_mesh/70/Variation_matrix_solver/BiCGStab_NoPrecond_CUDA/base
nProcs : 1
sigFpe : Enabling floating point exception trapping (FOAM_SIGFPE).
fileModificationChecking : Monitoring run-time modified files using timeStampMaster (fileModificationSkew 10)
allowSystemOperations : Allowing user-supplied system call operations

// * * * * * * * * * * * * * * * * * * * * * * * * * * * * * * * * * * * * * //
Create time

Create mesh for time = 0

Reading transportProperties

Reading field p

Reading field U

Reading/calculating face flux field phi


Starting time loop

Time = 0.001

Courant Number mean: 0 max: 0
DILUPBiCGStab:  Solving for Ux, Initial residual = 1, Final residual = 0.00143011, No Iterations 5
DILUPBiCGStab:  Solving for Uy:  solution singularity
DILUPBiCGStab:  Solving for Uz:  solution singularity
linear solve U 130960
[OGL LOG] init_host_sparsity_pattern : 152 ms
[OGL LOG] matrix not stored update host matrix
[OGL LOG] update_host_mtx : 76 ms
[OGL LOG] matrix is not yet sorted, compute sorting idxs
[OGL LOG] compute_sort : 3522 ms
[OGL LOG] matrix is not yet sorted, sorting host matrix
[OGL LOG] sort_host_mtx_sparsity_pattern : 61 ms
[OGL LOG] sort_host_mtx : 39 ms
[OGL LOG] init_preconditioner : 0 ms
[OGL LOG] solve : 978 ms
nonecudaGKOBiCGStab:  Solving for p, Initial residual = 1, Final residual = 8.62383e-05, No Iterations 449
linear solve p 6519480
time step continuity errors : sum local = 0.000233936, global = -1.72463e-19, cumulative = -1.72463e-19
[OGL LOG] init_host_sparsity_pattern : 138 ms
[OGL LOG] matrix not stored update host matrix
[OGL LOG] update_host_mtx : 69 ms
[OGL LOG] matrix is not yet sorted, sorting host matrix
[OGL LOG] sort_host_mtx_sparsity_pattern : 55 ms
[OGL LOG] sort_host_mtx : 33 ms
[OGL LOG] init_preconditioner : 0 ms
[OGL LOG] solve : 924 ms
nonecudaGKOBiCGStab:  Solving for p, Initial residual = 0.803006, Final residual = 5.34511e-05, No Iterations 430
linear solve p 1244530
time step continuity errors : sum local = 0.0013913, global = -1.72317e-18, cumulative = -1.89563e-18
ExecutionTime = 9.49 s  ClockTime = 9 s

Time = 0.002

Courant Number mean: 0.0400978 max: 0.539426
DILUPBiCGStab:  Solving for Ux, Initial residual = 0.151539, Final residual = 0.000460414, No Iterations 5
DILUPBiCGStab:  Solving for Uy, Initial residual = 0.363374, Final residual = 0.000982961, No Iterations 5
DILUPBiCGStab:  Solving for Uz, Initial residual = 0.715321, Final residual = 0.00410148, No Iterations 5
linear solve U 263477
[OGL LOG] init_host_sparsity_pattern : 137 ms
[OGL LOG] matrix not stored update host matrix
[OGL LOG] update_host_mtx : 70 ms
[OGL LOG] matrix is not yet sorted, sorting host matrix
[OGL LOG] sort_host_mtx_sparsity_pattern : 56 ms
[OGL LOG] sort_host_mtx : 34 ms
[OGL LOG] init_preconditioner : 0 ms
[OGL LOG] solve : 830 ms
nonecudaGKOBiCGStab:  Solving for p, Initial residual = 0.970844, Final residual = 8.69671e-05, No Iterations 383
linear solve p 1151904
time step continuity errors : sum local = 0.00304637, global = 1.2354e-17, cumulative = 1.04584e-17
[OGL LOG] init_host_sparsity_pattern : 138 ms
[OGL LOG] matrix not stored update host matrix
[OGL LOG] update_host_mtx : 70 ms
[OGL LOG] matrix is not yet sorted, sorting host matrix
[OGL LOG] sort_host_mtx_sparsity_pattern : 59 ms
[OGL LOG] sort_host_mtx : 35 ms
[OGL LOG] init_preconditioner : 0 ms
[OGL LOG] solve : 420 ms
nonecudaGKOBiCGStab:  Solving for p, Initial residual = 0.768595, Final residual = 9.21095e-05, No Iterations 193
linear solve p 746925
time step continuity errors : sum local = 4.16116e-06, global = -1.09135e-20, cumulative = 1.04474e-17
ExecutionTime = 11.81 s  ClockTime = 12 s

Time = 0.003

Courant Number mean: 0.0629744 max: 0.687918
DILUPBiCGStab:  Solving for Ux, Initial residual = 0.05711, Final residual = 0.000106503, No Iterations 5
DILUPBiCGStab:  Solving for Uy, Initial residual = 0.168968, Final residual = 0.000539261, No Iterations 5
DILUPBiCGStab:  Solving for Uz, Initial residual = 0.801421, Final residual = 0.00385498, No Iterations 5
linear solve U 265206
[OGL LOG] init_host_sparsity_pattern : 137 ms
[OGL LOG] matrix not stored update host matrix
[OGL LOG] update_host_mtx : 69 ms
[OGL LOG] matrix is not yet sorted, sorting host matrix
[OGL LOG] sort_host_mtx_sparsity_pattern : 56 ms
[OGL LOG] sort_host_mtx : 33 ms
[OGL LOG] init_preconditioner : 0 ms
[OGL LOG] solve : 827 ms
nonecudaGKOBiCGStab:  Solving for p, Initial residual = 0.973466, Final residual = 9.66237e-05, No Iterations 383
linear solve p 1147947
time step continuity errors : sum local = 0.00150551, global = 1.42376e-18, cumulative = 1.18712e-17
[OGL LOG] init_host_sparsity_pattern : 138 ms
[OGL LOG] matrix not stored update host matrix
[OGL LOG] update_host_mtx : 69 ms
[OGL LOG] matrix is not yet sorted, sorting host matrix
[OGL LOG] sort_host_mtx_sparsity_pattern : 58 ms
[OGL LOG] sort_host_mtx : 34 ms
[OGL LOG] init_preconditioner : 0 ms
[OGL LOG] solve : 746 ms
nonecudaGKOBiCGStab:  Solving for p, Initial residual = 0.799192, Final residual = 9.91978e-05, No Iterations 344
linear solve p 1069257
time step continuity errors : sum local = 0.000238701, global = 1.06334e-19, cumulative = 1.19775e-17
ExecutionTime = 14.44 s  ClockTime = 14 s

Time = 0.004

Courant Number mean: 0.0760641 max: 0.761278
DILUPBiCGStab:  Solving for Ux, Initial residual = 0.0545805, Final residual = 0.000131756, No Iterations 5
DILUPBiCGStab:  Solving for Uy, Initial residual = 0.178116, Final residual = 0.000535148, No Iterations 5
DILUPBiCGStab:  Solving for Uz, Initial residual = 0.838287, Final residual = 0.00291463, No Iterations 5
linear solve U 263811
[OGL LOG] init_host_sparsity_pattern : 137 ms
[OGL LOG] matrix not stored update host matrix
[OGL LOG] update_host_mtx : 69 ms
[OGL LOG] matrix is not yet sorted, sorting host matrix
[OGL LOG] sort_host_mtx_sparsity_pattern : 58 ms
[OGL LOG] sort_host_mtx : 35 ms
[OGL LOG] init_preconditioner : 0 ms
[OGL LOG] solve : 864 ms
nonecudaGKOBiCGStab:  Solving for p, Initial residual = 0.962865, Final residual = 5.75772e-05, No Iterations 399
linear solve p 1188163
time step continuity errors : sum local = 0.012876, global = -3.05596e-18, cumulative = 8.92156e-18
[OGL LOG] init_host_sparsity_pattern : 138 ms
[OGL LOG] matrix not stored update host matrix
[OGL LOG] update_host_mtx : 69 ms
[OGL LOG] matrix is not yet sorted, sorting host matrix
[OGL LOG] sort_host_mtx_sparsity_pattern : 57 ms
[OGL LOG] sort_host_mtx : 33 ms
[OGL LOG] init_preconditioner : 0 ms
[OGL LOG] solve : 812 ms
nonecudaGKOBiCGStab:  Solving for p, Initial residual = 0.739795, Final residual = 9.89304e-05, No Iterations 375
linear solve p 1134649
time step continuity errors : sum local = 0.00135116, global = -2.87264e-18, cumulative = 6.04893e-18
ExecutionTime = 17.17 s  ClockTime = 17 s

Time = 0.005

Courant Number mean: 0.0827934 max: 0.785552
DILUPBiCGStab:  Solving for Ux, Initial residual = 0.0420303, Final residual = 0.000111459, No Iterations 5
DILUPBiCGStab:  Solving for Uy, Initial residual = 0.173163, Final residual = 0.00101144, No Iterations 5
DILUPBiCGStab:  Solving for Uz, Initial residual = 0.873976, Final residual = 0.00434951, No Iterations 5
linear solve U 264446
[OGL LOG] init_host_sparsity_pattern : 137 ms
[OGL LOG] matrix not stored update host matrix
[OGL LOG] update_host_mtx : 69 ms
[OGL LOG] matrix is not yet sorted, sorting host matrix
[OGL LOG] sort_host_mtx_sparsity_pattern : 56 ms
[OGL LOG] sort_host_mtx : 34 ms
[OGL LOG] init_preconditioner : 0 ms
[OGL LOG] solve : 829 ms
nonecudaGKOBiCGStab:  Solving for p, Initial residual = 0.987005, Final residual = 8.86731e-05, No Iterations 382
linear solve p 1151031
time step continuity errors : sum local = 0.0194878, global = 6.80044e-18, cumulative = 1.28494e-17
[OGL LOG] init_host_sparsity_pattern : 138 ms
[OGL LOG] matrix not stored update host matrix
[OGL LOG] update_host_mtx : 70 ms
[OGL LOG] matrix is not yet sorted, sorting host matrix
[OGL LOG] sort_host_mtx_sparsity_pattern : 55 ms
[OGL LOG] sort_host_mtx : 33 ms
[OGL LOG] init_preconditioner : 0 ms
[OGL LOG] solve : 800 ms
nonecudaGKOBiCGStab:  Solving for p, Initial residual = 0.802212, Final residual = 9.96612e-05, No Iterations 369
linear solve p 1121121
time step continuity errors : sum local = 0.00175858, global = 3.46286e-18, cumulative = 1.63122e-17
ExecutionTime = 19.86 s  ClockTime = 20 s

Time = 0.006

Courant Number mean: 0.121881 max: 1.37034
DILUPBiCGStab:  Solving for Ux, Initial residual = 0.125294, Final residual = 0.000351536, No Iterations 5
DILUPBiCGStab:  Solving for Uy, Initial residual = 0.395892, Final residual = 0.00161863, No Iterations 5
DILUPBiCGStab:  Solving for Uz, Initial residual = 0.838864, Final residual = 0.00371559, No Iterations 5
linear solve U 262285
[OGL LOG] init_host_sparsity_pattern : 138 ms
[OGL LOG] matrix not stored update host matrix
[OGL LOG] update_host_mtx : 70 ms
[OGL LOG] matrix is not yet sorted, sorting host matrix
[OGL LOG] sort_host_mtx_sparsity_pattern : 56 ms
[OGL LOG] sort_host_mtx : 34 ms
[OGL LOG] init_preconditioner : 0 ms
[OGL LOG] solve : 823 ms
nonecudaGKOBiCGStab:  Solving for p, Initial residual = 0.983208, Final residual = 9.86585e-05, No Iterations 379
linear solve p 1144588
time step continuity errors : sum local = 0.0283695, global = -1.49434e-17, cumulative = 1.36882e-18
[OGL LOG] init_host_sparsity_pattern : 138 ms
[OGL LOG] matrix not stored update host matrix
[OGL LOG] update_host_mtx : 70 ms
[OGL LOG] matrix is not yet sorted, sorting host matrix
[OGL LOG] sort_host_mtx_sparsity_pattern : 57 ms
[OGL LOG] sort_host_mtx : 34 ms
[OGL LOG] init_preconditioner : 0 ms
[OGL LOG] solve : 805 ms
nonecudaGKOBiCGStab:  Solving for p, Initial residual = 0.808011, Final residual = 9.84061e-05, No Iterations 372
linear solve p 1128122
time step continuity errors : sum local = 0.0413638, global = 1.37955e-17, cumulative = 1.51643e-17
ExecutionTime = 22.54 s  ClockTime = 22 s

Time = 0.007

Courant Number mean: 0.16295 max: 2.23904
DILUPBiCGStab:  Solving for Ux, Initial residual = 0.209275, Final residual = 0.000629333, No Iterations 5
DILUPBiCGStab:  Solving for Uy, Initial residual = 0.506494, Final residual = 0.00264592, No Iterations 5
DILUPBiCGStab:  Solving for Uz, Initial residual = 0.80748, Final residual = 0.00406683, No Iterations 5
linear solve U 261269
[OGL LOG] init_host_sparsity_pattern : 138 ms
[OGL LOG] matrix not stored update host matrix
[OGL LOG] update_host_mtx : 70 ms
[OGL LOG] matrix is not yet sorted, sorting host matrix
[OGL LOG] sort_host_mtx_sparsity_pattern : 58 ms
[OGL LOG] sort_host_mtx : 33 ms
[OGL LOG] init_preconditioner : 0 ms
[OGL LOG] solve : 836 ms
nonecudaGKOBiCGStab:  Solving for p, Initial residual = 0.989746, Final residual = 9.39789e-05, No Iterations 385
linear solve p 1159621
time step continuity errors : sum local = 0.0583256, global = 1.09984e-16, cumulative = 1.25149e-16
[OGL LOG] init_host_sparsity_pattern : 138 ms
[OGL LOG] matrix not stored update host matrix
[OGL LOG] update_host_mtx : 70 ms
[OGL LOG] matrix is not yet sorted, sorting host matrix
[OGL LOG] sort_host_mtx_sparsity_pattern : 55 ms
[OGL LOG] sort_host_mtx : 33 ms
[OGL LOG] init_preconditioner : 0 ms
[OGL LOG] solve : 825 ms
nonecudaGKOBiCGStab:  Solving for p, Initial residual = 0.776264, Final residual = 9.24294e-05, No Iterations 378
linear solve p 1145925
time step continuity errors : sum local = 0.106186, global = 9.46468e-17, cumulative = 2.19796e-16
ExecutionTime = 25.25 s  ClockTime = 25 s

Time = 0.008

Courant Number mean: 0.359849 max: 6.38648
DILUPBiCGStab:  Solving for Ux, Initial residual = 0.424577, Final residual = 0.0012559, No Iterations 5
DILUPBiCGStab:  Solving for Uy, Initial residual = 0.70655, Final residual = 0.00331212, No Iterations 5
DILUPBiCGStab:  Solving for Uz, Initial residual = 0.804306, Final residual = 0.00413946, No Iterations 5
linear solve U 261620
[OGL LOG] init_host_sparsity_pattern : 138 ms
[OGL LOG] matrix not stored update host matrix
[OGL LOG] update_host_mtx : 70 ms
[OGL LOG] matrix is not yet sorted, sorting host matrix
[OGL LOG] sort_host_mtx_sparsity_pattern : 57 ms
[OGL LOG] sort_host_mtx : 34 ms
[OGL LOG] init_preconditioner : 0 ms
[OGL LOG] solve : 816 ms
nonecudaGKOBiCGStab:  Solving for p, Initial residual = 0.930521, Final residual = 9.87787e-05, No Iterations 375
linear solve p 1139005
time step continuity errors : sum local = 0.245167, global = -5.52598e-16, cumulative = -3.32803e-16
[OGL LOG] init_host_sparsity_pattern : 138 ms
[OGL LOG] matrix not stored update host matrix
[OGL LOG] update_host_mtx : 70 ms
[OGL LOG] matrix is not yet sorted, sorting host matrix
[OGL LOG] sort_host_mtx_sparsity_pattern : 57 ms
[OGL LOG] sort_host_mtx : 35 ms
[OGL LOG] init_preconditioner : 0 ms
[OGL LOG] solve : 422 ms
nonecudaGKOBiCGStab:  Solving for p, Initial residual = 0.737831, Final residual = 9.94989e-05, No Iterations 192
linear solve p 746236
time step continuity errors : sum local = 0.000252778, global = 2.21327e-19, cumulative = -3.32581e-16
ExecutionTime = 27.55 s  ClockTime = 27 s

Time = 0.009

Courant Number mean: 0.654138 max: 18.2252
DILUPBiCGStab:  Solving for Ux, Initial residual = 0.610549, Final residual = 0.00213942, No Iterations 5
DILUPBiCGStab:  Solving for Uy, Initial residual = 0.740001, Final residual = 0.00313848, No Iterations 5
DILUPBiCGStab:  Solving for Uz, Initial residual = 0.760438, Final residual = 0.00367149, No Iterations 5
linear solve U 261826
[OGL LOG] init_host_sparsity_pattern : 137 ms
[OGL LOG] matrix not stored update host matrix
[OGL LOG] update_host_mtx : 70 ms
[OGL LOG] matrix is not yet sorted, sorting host matrix
[OGL LOG] sort_host_mtx_sparsity_pattern : 55 ms
[OGL LOG] sort_host_mtx : 33 ms
[OGL LOG] init_preconditioner : 0 ms
[OGL LOG] solve : 858 ms
nonecudaGKOBiCGStab:  Solving for p, Initial residual = 0.97608, Final residual = 9.82342e-05, No Iterations 395
linear solve p 1178001
time step continuity errors : sum local = 0.0725037, global = 7.30202e-17, cumulative = -2.59561e-16
[OGL LOG] init_host_sparsity_pattern : 138 ms
[OGL LOG] matrix not stored update host matrix
[OGL LOG] update_host_mtx : 70 ms
[OGL LOG] matrix is not yet sorted, sorting host matrix
[OGL LOG] sort_host_mtx_sparsity_pattern : 55 ms
[OGL LOG] sort_host_mtx : 34 ms
[OGL LOG] init_preconditioner : 0 ms
[OGL LOG] solve : 854 ms
nonecudaGKOBiCGStab:  Solving for p, Initial residual = 0.838094, Final residual = 9.48547e-05, No Iterations 392
linear solve p 1175732
time step continuity errors : sum local = 0.000234845, global = 7.87966e-19, cumulative = -2.58773e-16
ExecutionTime = 30.32 s  ClockTime = 30 s

Time = 0.01

Courant Number mean: 0.912954 max: 16.9598
DILUPBiCGStab:  Solving for Ux, Initial residual = 0.655563, Final residual = 0.0022724, No Iterations 5
DILUPBiCGStab:  Solving for Uy, Initial residual = 0.772256, Final residual = 0.0026713, No Iterations 5
DILUPBiCGStab:  Solving for Uz, Initial residual = 0.809534, Final residual = 0.00237953, No Iterations 5
linear solve U 261288
[OGL LOG] init_host_sparsity_pattern : 137 ms
[OGL LOG] matrix not stored update host matrix
[OGL LOG] update_host_mtx : 69 ms
[OGL LOG] matrix is not yet sorted, sorting host matrix
[OGL LOG] sort_host_mtx_sparsity_pattern : 63 ms
[OGL LOG] sort_host_mtx : 33 ms
[OGL LOG] init_preconditioner : 0 ms
[OGL LOG] solve : 845 ms
nonecudaGKOBiCGStab:  Solving for p, Initial residual = 0.974552, Final residual = 9.68403e-05, No Iterations 388
linear solve p 1172057
time step continuity errors : sum local = 0.122471, global = 1.6102e-17, cumulative = -2.42671e-16
[OGL LOG] init_host_sparsity_pattern : 138 ms
[OGL LOG] matrix not stored update host matrix
[OGL LOG] update_host_mtx : 70 ms
[OGL LOG] matrix is not yet sorted, sorting host matrix
[OGL LOG] sort_host_mtx_sparsity_pattern : 55 ms
[OGL LOG] sort_host_mtx : 34 ms
[OGL LOG] init_preconditioner : 0 ms
[OGL LOG] solve : 850 ms
nonecudaGKOBiCGStab:  Solving for p, Initial residual = 0.799351, Final residual = 9.91149e-05, No Iterations 391
linear solve p 1171627
time step continuity errors : sum local = 0.606022, global = -1.67317e-15, cumulative = -1.91584e-15
ExecutionTime = 33.06 s  ClockTime = 33 s

End

