/*---------------------------------------------------------------------------*\
  =========                 |
  \\      /  F ield         | OpenFOAM: The Open Source CFD Toolbox
   \\    /   O peration     | Website:  https://openfoam.org
    \\  /    A nd           | Version:  8
     \\/     M anipulation  |
\*---------------------------------------------------------------------------*/
Build  : 8-40a5a48f630f
Exec   : icoFoam
Date   : Jul 28 2021
Time   : 12:20:04
Host   : "uc2n446.localdomain"
PID    : 411766
I/O    : uncollated
Case   : /pfs/data5/home/kit/scc/nq7776/code/OBR/lidDrivenCavity3D/Variation_mesh/65/Variation_matrix_solver/BiCGStab_NoPrecond_OMP/base
nProcs : 1
sigFpe : Enabling floating point exception trapping (FOAM_SIGFPE).
fileModificationChecking : Monitoring run-time modified files using timeStampMaster (fileModificationSkew 10)
allowSystemOperations : Allowing user-supplied system call operations

// * * * * * * * * * * * * * * * * * * * * * * * * * * * * * * * * * * * * * //
Create time

Create mesh for time = 0

Reading transportProperties

Reading field p

Reading field U

Reading/calculating face flux field phi


Starting time loop

Time = 0.001

Courant Number mean: 0 max: 0
nonePBiCGStab:  Solving for Ux, Initial residual = 1, Final residual = 0.053017, No Iterations 5
nonePBiCGStab:  Solving for Uy, Initial residual = 0, Final residual = 0, No Iterations 0
nonePBiCGStab:  Solving for Uz, Initial residual = 0, Final residual = 0, No Iterations 0
linear solve U 69
[OGL LOG] init_host_sparsity_pattern : 77 ms
[OGL LOG] matrix not stored update host matrix
[OGL LOG] update_host_mtx : 40 ms
[OGL LOG] matrix is not yet sorted, compute sorting idxs
[OGL LOG] compute_sort : 2371 ms
[OGL LOG] matrix is not yet sorted, sorting host matrix
[OGL LOG] sort_host_mtx_sparsity_pattern : 55 ms
[OGL LOG] sort_host_mtx : 32 ms
[OGL LOG] init_preconditioner : 0 ms
[OGL LOG] solve : 2186 ms
noneompGKOBiCGStab:  Solving for p, Initial residual = 1, Final residual = 9.23015e-05, No Iterations 415
linear solve p 4821
time step continuity errors : sum local = 1.54945e-07, global = -1.26331e-21, cumulative = -1.26331e-21
[OGL LOG] init_host_sparsity_pattern : 75 ms
[OGL LOG] matrix not stored update host matrix
[OGL LOG] update_host_mtx : 40 ms
[OGL LOG] matrix is not yet sorted, sorting host matrix
[OGL LOG] sort_host_mtx_sparsity_pattern : 56 ms
[OGL LOG] sort_host_mtx : 27 ms
[OGL LOG] init_preconditioner : 0 ms
[OGL LOG] solve : 2291 ms
noneompGKOBiCGStab:  Solving for p, Initial residual = 0.674596, Final residual = 9.84261e-05, No Iterations 404
linear solve p 2525
time step continuity errors : sum local = 1.73709e-05, global = -3.48035e-21, cumulative = -4.74366e-21
ExecutionTime = 93.68 s  ClockTime = 8 s

Time = 0.002

Courant Number mean: 0.0326947 max: 0.468251
nonePBiCGStab:  Solving for Ux, Initial residual = 0.152215, Final residual = 0.0217384, No Iterations 5
nonePBiCGStab:  Solving for Uy, Initial residual = 0.364632, Final residual = 0.0508856, No Iterations 5
nonePBiCGStab:  Solving for Uz, Initial residual = 0.901934, Final residual = 0.171584, No Iterations 5
linear solve U 136
[OGL LOG] init_host_sparsity_pattern : 73 ms
[OGL LOG] matrix not stored update host matrix
[OGL LOG] update_host_mtx : 37 ms
[OGL LOG] matrix is not yet sorted, sorting host matrix
[OGL LOG] sort_host_mtx_sparsity_pattern : 55 ms
[OGL LOG] sort_host_mtx : 27 ms
[OGL LOG] init_preconditioner : 0 ms
[OGL LOG] solve : 2188 ms
noneompGKOBiCGStab:  Solving for p, Initial residual = 0.65785, Final residual = 8.87537e-05, No Iterations 391
linear solve p 2419
time step continuity errors : sum local = 1.70035e-06, global = -6.47682e-22, cumulative = -5.39134e-21
[OGL LOG] init_host_sparsity_pattern : 72 ms
[OGL LOG] matrix not stored update host matrix
[OGL LOG] update_host_mtx : 35 ms
[OGL LOG] matrix is not yet sorted, sorting host matrix
[OGL LOG] sort_host_mtx_sparsity_pattern : 57 ms
[OGL LOG] sort_host_mtx : 27 ms
[OGL LOG] init_preconditioner : 0 ms
[OGL LOG] solve : 1831 ms
noneompGKOBiCGStab:  Solving for p, Initial residual = 0.572935, Final residual = 7.20941e-05, No Iterations 387
linear solve p 2059
time step continuity errors : sum local = 1.55681e-05, global = -4.68434e-21, cumulative = -1.00757e-20
ExecutionTime = 174.94 s  ClockTime = 13 s

Time = 0.003

Courant Number mean: 0.0501191 max: 0.556373
nonePBiCGStab:  Solving for Ux, Initial residual = 0.055271, Final residual = 0.00651733, No Iterations 5
nonePBiCGStab:  Solving for Uy, Initial residual = 0.130349, Final residual = 0.0208944, No Iterations 5
nonePBiCGStab:  Solving for Uz, Initial residual = 0.425464, Final residual = 0.0907376, No Iterations 5
linear solve U 137
[OGL LOG] init_host_sparsity_pattern : 72 ms
[OGL LOG] matrix not stored update host matrix
[OGL LOG] update_host_mtx : 37 ms
[OGL LOG] matrix is not yet sorted, sorting host matrix
[OGL LOG] sort_host_mtx_sparsity_pattern : 56 ms
[OGL LOG] sort_host_mtx : 27 ms
[OGL LOG] init_preconditioner : 0 ms
[OGL LOG] solve : 1747 ms
noneompGKOBiCGStab:  Solving for p, Initial residual = 0.572503, Final residual = 9.82409e-05, No Iterations 325
linear solve p 1980
time step continuity errors : sum local = 7.8452e-07, global = 1.1691e-21, cumulative = -8.90658e-21
[OGL LOG] init_host_sparsity_pattern : 75 ms
[OGL LOG] matrix not stored update host matrix
[OGL LOG] update_host_mtx : 40 ms
[OGL LOG] matrix is not yet sorted, sorting host matrix
[OGL LOG] sort_host_mtx_sparsity_pattern : 58 ms
[OGL LOG] sort_host_mtx : 27 ms
[OGL LOG] init_preconditioner : 0 ms
[OGL LOG] solve : 1842 ms
noneompGKOBiCGStab:  Solving for p, Initial residual = 0.501923, Final residual = 7.85436e-05, No Iterations 329
linear solve p 2081
time step continuity errors : sum local = 2.57151e-06, global = -9.61118e-21, cumulative = -1.85178e-20
ExecutionTime = 247.65 s  ClockTime = 18 s

Time = 0.004

Courant Number mean: 0.060104 max: 0.574825
nonePBiCGStab:  Solving for Ux, Initial residual = 0.0340438, Final residual = 0.00410132, No Iterations 5
nonePBiCGStab:  Solving for Uy, Initial residual = 0.0827186, Final residual = 0.0104555, No Iterations 5
nonePBiCGStab:  Solving for Uz, Initial residual = 0.299707, Final residual = 0.0558876, No Iterations 5
linear solve U 135
[OGL LOG] init_host_sparsity_pattern : 72 ms
[OGL LOG] matrix not stored update host matrix
[OGL LOG] update_host_mtx : 40 ms
[OGL LOG] matrix is not yet sorted, sorting host matrix
[OGL LOG] sort_host_mtx_sparsity_pattern : 55 ms
[OGL LOG] sort_host_mtx : 27 ms
[OGL LOG] init_preconditioner : 0 ms
[OGL LOG] solve : 2146 ms
noneompGKOBiCGStab:  Solving for p, Initial residual = 0.389763, Final residual = 8.55684e-05, No Iterations 385
linear solve p 2376
time step continuity errors : sum local = 4.2413e-07, global = 6.1665e-21, cumulative = -1.23513e-20
[OGL LOG] init_host_sparsity_pattern : 72 ms
[OGL LOG] matrix not stored update host matrix
[OGL LOG] update_host_mtx : 37 ms
[OGL LOG] matrix is not yet sorted, sorting host matrix
[OGL LOG] sort_host_mtx_sparsity_pattern : 57 ms
[OGL LOG] sort_host_mtx : 27 ms
[OGL LOG] init_preconditioner : 0 ms
[OGL LOG] solve : 2182 ms
noneompGKOBiCGStab:  Solving for p, Initial residual = 0.321834, Final residual = 7.51966e-05, No Iterations 392
linear solve p 2411
time step continuity errors : sum local = 7.57058e-07, global = 1.10048e-20, cumulative = -1.34649e-21
ExecutionTime = 335.06 s  ClockTime = 23 s

Time = 0.005

Courant Number mean: 0.0680372 max: 0.585517
nonePBiCGStab:  Solving for Ux, Initial residual = 0.0239001, Final residual = 0.00193235, No Iterations 5
nonePBiCGStab:  Solving for Uy, Initial residual = 0.0553995, Final residual = 0.00508606, No Iterations 5
nonePBiCGStab:  Solving for Uz, Initial residual = 0.179684, Final residual = 0.0345007, No Iterations 5
linear solve U 137
[OGL LOG] init_host_sparsity_pattern : 72 ms
[OGL LOG] matrix not stored update host matrix
[OGL LOG] update_host_mtx : 40 ms
[OGL LOG] matrix is not yet sorted, sorting host matrix
[OGL LOG] sort_host_mtx_sparsity_pattern : 56 ms
[OGL LOG] sort_host_mtx : 27 ms
[OGL LOG] init_preconditioner : 0 ms
[OGL LOG] solve : 1740 ms
noneompGKOBiCGStab:  Solving for p, Initial residual = 0.311643, Final residual = 9.96115e-05, No Iterations 312
linear solve p 1968
time step continuity errors : sum local = 3.77867e-06, global = 1.29307e-20, cumulative = 1.15842e-20
[OGL LOG] init_host_sparsity_pattern : 72 ms
[OGL LOG] matrix not stored update host matrix
[OGL LOG] update_host_mtx : 39 ms
[OGL LOG] matrix is not yet sorted, sorting host matrix
[OGL LOG] sort_host_mtx_sparsity_pattern : 56 ms
[OGL LOG] sort_host_mtx : 27 ms
[OGL LOG] init_preconditioner : 0 ms
[OGL LOG] solve : 1739 ms
noneompGKOBiCGStab:  Solving for p, Initial residual = 0.266494, Final residual = 9.84678e-05, No Iterations 312
linear solve p 1968
time step continuity errors : sum local = 2.53863e-07, global = -9.80974e-21, cumulative = 1.77446e-21
ExecutionTime = 405.51 s  ClockTime = 27 s

Time = 0.006

Courant Number mean: 0.0743011 max: 0.592083
nonePBiCGStab:  Solving for Ux, Initial residual = 0.0182461, Final residual = 0.00164011, No Iterations 5
nonePBiCGStab:  Solving for Uy, Initial residual = 0.0407849, Final residual = 0.00307428, No Iterations 5
nonePBiCGStab:  Solving for Uz, Initial residual = 0.143797, Final residual = 0.030858, No Iterations 5
linear solve U 135
[OGL LOG] init_host_sparsity_pattern : 72 ms
[OGL LOG] matrix not stored update host matrix
[OGL LOG] update_host_mtx : 40 ms
[OGL LOG] matrix is not yet sorted, sorting host matrix
[OGL LOG] sort_host_mtx_sparsity_pattern : 56 ms
[OGL LOG] sort_host_mtx : 27 ms
[OGL LOG] init_preconditioner : 0 ms
[OGL LOG] solve : 2011 ms
noneompGKOBiCGStab:  Solving for p, Initial residual = 0.230978, Final residual = 8.34954e-05, No Iterations 362
linear solve p 2241
time step continuity errors : sum local = 5.00898e-08, global = -1.63303e-20, cumulative = -1.45559e-20
[OGL LOG] init_host_sparsity_pattern : 72 ms
[OGL LOG] matrix not stored update host matrix
[OGL LOG] update_host_mtx : 37 ms
[OGL LOG] matrix is not yet sorted, sorting host matrix
[OGL LOG] sort_host_mtx_sparsity_pattern : 56 ms
[OGL LOG] sort_host_mtx : 27 ms
[OGL LOG] init_preconditioner : 0 ms
[OGL LOG] solve : 1931 ms
noneompGKOBiCGStab:  Solving for p, Initial residual = 0.190897, Final residual = 2.15475e-05, No Iterations 346
linear solve p 2158
time step continuity errors : sum local = 2.05757e-08, global = -1.1391e-20, cumulative = -2.59469e-20
ExecutionTime = 485.21 s  ClockTime = 32 s

Time = 0.007

Courant Number mean: 0.0794926 max: 0.596549
nonePBiCGStab:  Solving for Ux, Initial residual = 0.0142514, Final residual = 0.000789751, No Iterations 5
nonePBiCGStab:  Solving for Uy, Initial residual = 0.0327898, Final residual = 0.00155654, No Iterations 5
nonePBiCGStab:  Solving for Uz, Initial residual = 0.100179, Final residual = 0.0146198, No Iterations 5
linear solve U 137
[OGL LOG] init_host_sparsity_pattern : 72 ms
[OGL LOG] matrix not stored update host matrix
[OGL LOG] update_host_mtx : 40 ms
[OGL LOG] matrix is not yet sorted, sorting host matrix
[OGL LOG] sort_host_mtx_sparsity_pattern : 56 ms
[OGL LOG] sort_host_mtx : 27 ms
[OGL LOG] init_preconditioner : 0 ms
[OGL LOG] solve : 1719 ms
noneompGKOBiCGStab:  Solving for p, Initial residual = 0.173183, Final residual = 9.39971e-05, No Iterations 308
linear solve p 1947
time step continuity errors : sum local = 1.67949e-06, global = -1.37024e-20, cumulative = -3.96492e-20
[OGL LOG] init_host_sparsity_pattern : 72 ms
[OGL LOG] matrix not stored update host matrix
[OGL LOG] update_host_mtx : 40 ms
[OGL LOG] matrix is not yet sorted, sorting host matrix
[OGL LOG] sort_host_mtx_sparsity_pattern : 55 ms
[OGL LOG] sort_host_mtx : 27 ms
[OGL LOG] init_preconditioner : 0 ms
[OGL LOG] solve : 1680 ms
noneompGKOBiCGStab:  Solving for p, Initial residual = 0.14539, Final residual = 9.70435e-05, No Iterations 302
linear solve p 1909
time step continuity errors : sum local = 1.34515e-07, global = -4.83434e-21, cumulative = -4.44836e-20
ExecutionTime = 554.07 s  ClockTime = 36 s

Time = 0.008

Courant Number mean: 0.0838744 max: 0.599966
nonePBiCGStab:  Solving for Ux, Initial residual = 0.0117848, Final residual = 0.00085734, No Iterations 5
nonePBiCGStab:  Solving for Uy, Initial residual = 0.0259235, Final residual = 0.00152592, No Iterations 5
nonePBiCGStab:  Solving for Uz, Initial residual = 0.0818808, Final residual = 0.0162541, No Iterations 5
linear solve U 135
[OGL LOG] init_host_sparsity_pattern : 72 ms
[OGL LOG] matrix not stored update host matrix
[OGL LOG] update_host_mtx : 40 ms
[OGL LOG] matrix is not yet sorted, sorting host matrix
[OGL LOG] sort_host_mtx_sparsity_pattern : 55 ms
[OGL LOG] sort_host_mtx : 27 ms
[OGL LOG] init_preconditioner : 0 ms
[OGL LOG] solve : 1809 ms
noneompGKOBiCGStab:  Solving for p, Initial residual = 0.1373, Final residual = 9.86567e-05, No Iterations 324
linear solve p 2037
time step continuity errors : sum local = 1.2026e-07, global = 8.10963e-21, cumulative = -3.6374e-20
[OGL LOG] init_host_sparsity_pattern : 72 ms
[OGL LOG] matrix not stored update host matrix
[OGL LOG] update_host_mtx : 37 ms
[OGL LOG] matrix is not yet sorted, sorting host matrix
[OGL LOG] sort_host_mtx_sparsity_pattern : 55 ms
[OGL LOG] sort_host_mtx : 28 ms
[OGL LOG] init_preconditioner : 0 ms
[OGL LOG] solve : 1791 ms
noneompGKOBiCGStab:  Solving for p, Initial residual = 0.114106, Final residual = 5.71989e-05, No Iterations 321
linear solve p 2018
time step continuity errors : sum local = 4.95938e-08, global = 2.56591e-22, cumulative = -3.61174e-20
ExecutionTime = 626.93 s  ClockTime = 40 s

Time = 0.009

Courant Number mean: 0.0876313 max: 0.602549
nonePBiCGStab:  Solving for Ux, Initial residual = 0.00972375, Final residual = 0.0004963, No Iterations 5
nonePBiCGStab:  Solving for Uy, Initial residual = 0.022331, Final residual = 0.000942075, No Iterations 5
nonePBiCGStab:  Solving for Uz, Initial residual = 0.0704178, Final residual = 0.0109392, No Iterations 5
linear solve U 138
[OGL LOG] init_host_sparsity_pattern : 72 ms
[OGL LOG] matrix not stored update host matrix
[OGL LOG] update_host_mtx : 40 ms
[OGL LOG] matrix is not yet sorted, sorting host matrix
[OGL LOG] sort_host_mtx_sparsity_pattern : 56 ms
[OGL LOG] sort_host_mtx : 27 ms
[OGL LOG] init_preconditioner : 0 ms
[OGL LOG] solve : 1646 ms
noneompGKOBiCGStab:  Solving for p, Initial residual = 0.107063, Final residual = 9.90494e-05, No Iterations 297
linear solve p 1875
time step continuity errors : sum local = 8.56812e-08, global = -2.03654e-21, cumulative = -3.81539e-20
[OGL LOG] init_host_sparsity_pattern : 72 ms
[OGL LOG] matrix not stored update host matrix
[OGL LOG] update_host_mtx : 40 ms
[OGL LOG] matrix is not yet sorted, sorting host matrix
[OGL LOG] sort_host_mtx_sparsity_pattern : 55 ms
[OGL LOG] sort_host_mtx : 27 ms
[OGL LOG] init_preconditioner : 0 ms
[OGL LOG] solve : 1674 ms
noneompGKOBiCGStab:  Solving for p, Initial residual = 0.0882085, Final residual = 9.77454e-05, No Iterations 300
linear solve p 1903
time step continuity errors : sum local = 7.9417e-08, global = 1.55673e-20, cumulative = -2.25866e-20
ExecutionTime = 694.24 s  ClockTime = 44 s

Time = 0.01

Courant Number mean: 0.0909015 max: 0.604676
nonePBiCGStab:  Solving for Ux, Initial residual = 0.00849064, Final residual = 0.000469242, No Iterations 5
nonePBiCGStab:  Solving for Uy, Initial residual = 0.0185048, Final residual = 0.00080633, No Iterations 5
nonePBiCGStab:  Solving for Uz, Initial residual = 0.0644751, Final residual = 0.0115222, No Iterations 5
linear solve U 135
[OGL LOG] init_host_sparsity_pattern : 72 ms
[OGL LOG] matrix not stored update host matrix
[OGL LOG] update_host_mtx : 40 ms
[OGL LOG] matrix is not yet sorted, sorting host matrix
[OGL LOG] sort_host_mtx_sparsity_pattern : 56 ms
[OGL LOG] sort_host_mtx : 27 ms
[OGL LOG] init_preconditioner : 0 ms
[OGL LOG] solve : 1995 ms
noneompGKOBiCGStab:  Solving for p, Initial residual = 0.0849867, Final residual = 9.73879e-05, No Iterations 359
linear solve p 2224
time step continuity errors : sum local = 4.52099e-08, global = 5.83563e-22, cumulative = -2.2003e-20
[OGL LOG] init_host_sparsity_pattern : 72 ms
[OGL LOG] matrix not stored update host matrix
[OGL LOG] update_host_mtx : 37 ms
[OGL LOG] matrix is not yet sorted, sorting host matrix
[OGL LOG] sort_host_mtx_sparsity_pattern : 55 ms
[OGL LOG] sort_host_mtx : 27 ms
[OGL LOG] init_preconditioner : 0 ms
[OGL LOG] solve : 1859 ms
noneompGKOBiCGStab:  Solving for p, Initial residual = 0.0704184, Final residual = 9.95194e-05, No Iterations 332
linear solve p 2086
time step continuity errors : sum local = 6.23881e-08, global = 1.01987e-20, cumulative = -1.18043e-20
ExecutionTime = 772.17 s  ClockTime = 49 s

End

