/*---------------------------------------------------------------------------*\
  =========                 |
  \\      /  F ield         | OpenFOAM: The Open Source CFD Toolbox
   \\    /   O peration     | Website:  https://openfoam.org
    \\  /    A nd           | Version:  8
     \\/     M anipulation  |
\*---------------------------------------------------------------------------*/
Build  : 8-14d69e1ee166
Exec   : icoFoam
Date   : Jul 29 2021
Time   : 07:18:31
Host   : "guyot.icl.utk.edu"
PID    : 250185
I/O    : uncollated
Case   : /home/greole/code/OBR/lidDrivenCavity3D/Variation_mesh/90/Variation_matrix_solver/CG_BJ_CUDA/base
nProcs : 1
sigFpe : Enabling floating point exception trapping (FOAM_SIGFPE).
fileModificationChecking : Monitoring run-time modified files using timeStampMaster (fileModificationSkew 10)
allowSystemOperations : Allowing user-supplied system call operations

// * * * * * * * * * * * * * * * * * * * * * * * * * * * * * * * * * * * * * //
Create time

Create mesh for time = 0

Reading transportProperties

Reading field p

Reading field U

Reading/calculating face flux field phi


Starting time loop

Time = 0.001

Courant Number mean: 0 max: 0
DILUPBiCGStab:  Solving for Ux, Initial residual = 1, Final residual = 0.00485432, No Iterations 5
DILUPBiCGStab:  Solving for Uy:  solution singularity
DILUPBiCGStab:  Solving for Uz:  solution singularity
linear solve U 282537
[OGL LOG] init_host_sparsity_pattern : 328 ms
[OGL LOG] matrix not stored update host matrix
[OGL LOG] update_host_mtx : 162 ms
[OGL LOG] matrix is not yet sorted, compute sorting idxs
[OGL LOG] compute_sort : 7866 ms
[OGL LOG] matrix is not yet sorted, sorting host matrix
[OGL LOG] sort_host_mtx_sparsity_pattern : 144 ms
[OGL LOG] sort_host_mtx : 89 ms
[OGL LOG] init_preconditioner : 108 ms
 CG create  precond 
[OGL LOG] solve : 798 ms
BJcudaGKOCG:  Solving for p, Initial residual = 1, Final residual = 9.90783e-05, No Iterations 587
linear solve p 11205952
time step continuity errors : sum local = 5.75857e-08, global = 9.80416e-21, cumulative = 9.80416e-21
[OGL LOG] init_host_sparsity_pattern : 314 ms
[OGL LOG] matrix not stored update host matrix
[OGL LOG] update_host_mtx : 160 ms
[OGL LOG] matrix is not yet sorted, sorting host matrix
[OGL LOG] sort_host_mtx_sparsity_pattern : 140 ms
[OGL LOG] sort_host_mtx : 82 ms
[OGL LOG] init_preconditioner : 0 ms
 CG create  precond 
[OGL LOG] solve : 769 ms
BJcudaGKOCG:  Solving for p, Initial residual = 0.763275, Final residual = 9.9996e-05, No Iterations 576
linear solve p 1512638
time step continuity errors : sum local = 7.43485e-08, global = -3.13573e-22, cumulative = 9.49059e-21
ExecutionTime = 16.38 s  ClockTime = 17 s

Time = 0.002

Courant Number mean: 0.0507368 max: 0.709498
DILUPBiCGStab:  Solving for Ux, Initial residual = 0.142057, Final residual = 0.0019777, No Iterations 5
DILUPBiCGStab:  Solving for Uy, Initial residual = 0.408399, Final residual = 0.00514578, No Iterations 5
DILUPBiCGStab:  Solving for Uz, Initial residual = 0.989002, Final residual = 0.0136245, No Iterations 5
linear solve U 599712
[OGL LOG] init_host_sparsity_pattern : 314 ms
[OGL LOG] matrix not stored update host matrix
[OGL LOG] update_host_mtx : 160 ms
[OGL LOG] matrix is not yet sorted, sorting host matrix
[OGL LOG] sort_host_mtx_sparsity_pattern : 140 ms
[OGL LOG] sort_host_mtx : 81 ms
[OGL LOG] init_preconditioner : 0 ms
 CG create  precond 
[OGL LOG] solve : 767 ms
BJcudaGKOCG:  Solving for p, Initial residual = 0.765694, Final residual = 9.85346e-05, No Iterations 571
linear solve p 1509420
time step continuity errors : sum local = 9.45055e-08, global = -1.25491e-20, cumulative = -3.05848e-21
[OGL LOG] init_host_sparsity_pattern : 313 ms
[OGL LOG] matrix not stored update host matrix
[OGL LOG] update_host_mtx : 159 ms
[OGL LOG] matrix is not yet sorted, sorting host matrix
[OGL LOG] sort_host_mtx_sparsity_pattern : 126 ms
[OGL LOG] sort_host_mtx : 77 ms
[OGL LOG] init_preconditioner : 0 ms
 CG create  precond 
[OGL LOG] solve : 753 ms
BJcudaGKOCG:  Solving for p, Initial residual = 0.702783, Final residual = 9.81442e-05, No Iterations 569
linear solve p 1475438
time step continuity errors : sum local = 9.6066e-08, global = -1.53039e-21, cumulative = -4.58887e-21
ExecutionTime = 20.38 s  ClockTime = 21 s

Time = 0.003

Courant Number mean: 0.0767031 max: 0.830945
DILUPBiCGStab:  Solving for Ux, Initial residual = 0.0602984, Final residual = 0.000670355, No Iterations 5
DILUPBiCGStab:  Solving for Uy, Initial residual = 0.181419, Final residual = 0.00183583, No Iterations 5
DILUPBiCGStab:  Solving for Uz, Initial residual = 0.759593, Final residual = 0.0095134, No Iterations 5
linear solve U 599340
[OGL LOG] init_host_sparsity_pattern : 313 ms
[OGL LOG] matrix not stored update host matrix
[OGL LOG] update_host_mtx : 160 ms
[OGL LOG] matrix is not yet sorted, sorting host matrix
[OGL LOG] sort_host_mtx_sparsity_pattern : 127 ms
[OGL LOG] sort_host_mtx : 82 ms
[OGL LOG] init_preconditioner : 0 ms
 CG create  precond 
[OGL LOG] solve : 453 ms
BJcudaGKOCG:  Solving for p, Initial residual = 0.780716, Final residual = 9.69682e-05, No Iterations 341
linear solve p 1182991
time step continuity errors : sum local = 8.43381e-08, global = 8.81943e-22, cumulative = -3.70692e-21
[OGL LOG] init_host_sparsity_pattern : 313 ms
[OGL LOG] matrix not stored update host matrix
[OGL LOG] update_host_mtx : 160 ms
[OGL LOG] matrix is not yet sorted, sorting host matrix
[OGL LOG] sort_host_mtx_sparsity_pattern : 131 ms
[OGL LOG] sort_host_mtx : 80 ms
[OGL LOG] init_preconditioner : 0 ms
 CG create  precond 
[OGL LOG] solve : 450 ms
BJcudaGKOCG:  Solving for p, Initial residual = 0.744073, Final residual = 9.87881e-05, No Iterations 337
linear solve p 1180974
time step continuity errors : sum local = 8.00851e-08, global = 1.38044e-20, cumulative = 1.00974e-20
ExecutionTime = 23.76 s  ClockTime = 24 s

Time = 0.004

Courant Number mean: 0.0889416 max: 0.827789
DILUPBiCGStab:  Solving for Ux, Initial residual = 0.0330556, Final residual = 0.00043913, No Iterations 5
DILUPBiCGStab:  Solving for Uy, Initial residual = 0.130026, Final residual = 0.00153326, No Iterations 5
DILUPBiCGStab:  Solving for Uz, Initial residual = 0.521776, Final residual = 0.00551709, No Iterations 5
linear solve U 597827
[OGL LOG] init_host_sparsity_pattern : 313 ms
[OGL LOG] matrix not stored update host matrix
[OGL LOG] update_host_mtx : 159 ms
[OGL LOG] matrix is not yet sorted, sorting host matrix
[OGL LOG] sort_host_mtx_sparsity_pattern : 135 ms
[OGL LOG] sort_host_mtx : 77 ms
[OGL LOG] init_preconditioner : 0 ms
 CG create  precond 
[OGL LOG] solve : 416 ms
BJcudaGKOCG:  Solving for p, Initial residual = 0.652456, Final residual = 9.9988e-05, No Iterations 312
linear solve p 1149403
time step continuity errors : sum local = 7.42655e-08, global = -6.2136e-21, cumulative = 3.88384e-21
[OGL LOG] init_host_sparsity_pattern : 313 ms
[OGL LOG] matrix not stored update host matrix
[OGL LOG] update_host_mtx : 160 ms
[OGL LOG] matrix is not yet sorted, sorting host matrix
[OGL LOG] sort_host_mtx_sparsity_pattern : 136 ms
[OGL LOG] sort_host_mtx : 82 ms
[OGL LOG] init_preconditioner : 0 ms
 CG create  precond 
[OGL LOG] solve : 412 ms
BJcudaGKOCG:  Solving for p, Initial residual = 0.58706, Final residual = 9.85169e-05, No Iterations 310
linear solve p 1149183
time step continuity errors : sum local = 7.24372e-08, global = 1.92989e-21, cumulative = 5.81372e-21
ExecutionTime = 27.06 s  ClockTime = 28 s

Time = 0.005

Courant Number mean: 0.0998624 max: 0.839558
DILUPBiCGStab:  Solving for Ux, Initial residual = 0.0250792, Final residual = 0.000294949, No Iterations 5
DILUPBiCGStab:  Solving for Uy, Initial residual = 0.0681973, Final residual = 0.000857081, No Iterations 5
DILUPBiCGStab:  Solving for Uz, Initial residual = 0.371754, Final residual = 0.00374544, No Iterations 5
linear solve U 598314
[OGL LOG] init_host_sparsity_pattern : 313 ms
[OGL LOG] matrix not stored update host matrix
[OGL LOG] update_host_mtx : 159 ms
[OGL LOG] matrix is not yet sorted, sorting host matrix
[OGL LOG] sort_host_mtx_sparsity_pattern : 138 ms
[OGL LOG] sort_host_mtx : 80 ms
[OGL LOG] init_preconditioner : 0 ms
 CG create  precond 
[OGL LOG] solve : 411 ms
BJcudaGKOCG:  Solving for p, Initial residual = 0.628491, Final residual = 9.87592e-05, No Iterations 310
linear solve p 1149918
time step continuity errors : sum local = 6.50496e-08, global = 3.64484e-21, cumulative = 9.45856e-21
[OGL LOG] init_host_sparsity_pattern : 313 ms
[OGL LOG] matrix not stored update host matrix
[OGL LOG] update_host_mtx : 159 ms
[OGL LOG] matrix is not yet sorted, sorting host matrix
[OGL LOG] sort_host_mtx_sparsity_pattern : 136 ms
[OGL LOG] sort_host_mtx : 80 ms
[OGL LOG] init_preconditioner : 0 ms
 CG create  precond 
[OGL LOG] solve : 369 ms
BJcudaGKOCG:  Solving for p, Initial residual = 0.57656, Final residual = 9.72747e-05, No Iterations 278
linear solve p 1102983
time step continuity errors : sum local = 5.76086e-08, global = -7.10001e-21, cumulative = 2.35855e-21
ExecutionTime = 30.32 s  ClockTime = 31 s

Time = 0.006

Courant Number mean: 0.107709 max: 0.845133
DILUPBiCGStab:  Solving for Ux, Initial residual = 0.0160727, Final residual = 0.000182564, No Iterations 5
DILUPBiCGStab:  Solving for Uy, Initial residual = 0.0558821, Final residual = 0.000624254, No Iterations 5
DILUPBiCGStab:  Solving for Uz, Initial residual = 0.264066, Final residual = 0.00274984, No Iterations 5
linear solve U 599376
[OGL LOG] init_host_sparsity_pattern : 313 ms
[OGL LOG] matrix not stored update host matrix
[OGL LOG] update_host_mtx : 159 ms
[OGL LOG] matrix is not yet sorted, sorting host matrix
[OGL LOG] sort_host_mtx_sparsity_pattern : 127 ms
[OGL LOG] sort_host_mtx : 82 ms
[OGL LOG] init_preconditioner : 0 ms
 CG create  precond 
[OGL LOG] solve : 399 ms
BJcudaGKOCG:  Solving for p, Initial residual = 0.49449, Final residual = 9.90517e-05, No Iterations 296
linear solve p 1129445
time step continuity errors : sum local = 5.72242e-08, global = 1.12472e-20, cumulative = 1.36057e-20
[OGL LOG] init_host_sparsity_pattern : 313 ms
[OGL LOG] matrix not stored update host matrix
[OGL LOG] update_host_mtx : 159 ms
[OGL LOG] matrix is not yet sorted, sorting host matrix
[OGL LOG] sort_host_mtx_sparsity_pattern : 122 ms
[OGL LOG] sort_host_mtx : 83 ms
[OGL LOG] init_preconditioner : 0 ms
 CG create  precond 
[OGL LOG] solve : 379 ms
BJcudaGKOCG:  Solving for p, Initial residual = 0.438732, Final residual = 9.87774e-05, No Iterations 284
linear solve p 1102772
time step continuity errors : sum local = 5.28514e-08, global = -6.4308e-21, cumulative = 7.17495e-21
ExecutionTime = 33.57 s  ClockTime = 34 s

Time = 0.007

Courant Number mean: 0.114495 max: 0.848538
DILUPBiCGStab:  Solving for Ux, Initial residual = 0.0136119, Final residual = 0.000136654, No Iterations 5
DILUPBiCGStab:  Solving for Uy, Initial residual = 0.0360616, Final residual = 0.000312394, No Iterations 5
DILUPBiCGStab:  Solving for Uz, Initial residual = 0.173232, Final residual = 0.00204032, No Iterations 5
linear solve U 591650
[OGL LOG] init_host_sparsity_pattern : 313 ms
[OGL LOG] matrix not stored update host matrix
[OGL LOG] update_host_mtx : 160 ms
[OGL LOG] matrix is not yet sorted, sorting host matrix
[OGL LOG] sort_host_mtx_sparsity_pattern : 140 ms
[OGL LOG] sort_host_mtx : 77 ms
[OGL LOG] init_preconditioner : 0 ms
 CG create  precond 
[OGL LOG] solve : 738 ms
BJcudaGKOCG:  Solving for p, Initial residual = 0.455268, Final residual = 9.08259e-05, No Iterations 556
linear solve p 1475771
time step continuity errors : sum local = 4.00077e-08, global = 1.08455e-21, cumulative = 8.2595e-21
[OGL LOG] init_host_sparsity_pattern : 313 ms
[OGL LOG] matrix not stored update host matrix
[OGL LOG] update_host_mtx : 159 ms
[OGL LOG] matrix is not yet sorted, sorting host matrix
[OGL LOG] sort_host_mtx_sparsity_pattern : 139 ms
[OGL LOG] sort_host_mtx : 79 ms
[OGL LOG] init_preconditioner : 0 ms
 CG create  precond 
[OGL LOG] solve : 738 ms
BJcudaGKOCG:  Solving for p, Initial residual = 0.402192, Final residual = 9.32104e-05, No Iterations 555
linear solve p 1476037
time step continuity errors : sum local = 4.09374e-08, global = 1.39556e-20, cumulative = 2.22151e-20
ExecutionTime = 37.53 s  ClockTime = 38 s

Time = 0.008

Courant Number mean: 0.120058 max: 0.852065
DILUPBiCGStab:  Solving for Ux, Initial residual = 0.00997487, Final residual = 8.95984e-05, No Iterations 5
DILUPBiCGStab:  Solving for Uy, Initial residual = 0.0308036, Final residual = 0.00026775, No Iterations 5
DILUPBiCGStab:  Solving for Uz, Initial residual = 0.13194, Final residual = 0.00148757, No Iterations 5
linear solve U 596388
[OGL LOG] init_host_sparsity_pattern : 314 ms
[OGL LOG] matrix not stored update host matrix
[OGL LOG] update_host_mtx : 160 ms
[OGL LOG] matrix is not yet sorted, sorting host matrix
[OGL LOG] sort_host_mtx_sparsity_pattern : 139 ms
[OGL LOG] sort_host_mtx : 82 ms
[OGL LOG] init_preconditioner : 0 ms
 CG create  precond 
[OGL LOG] solve : 373 ms
BJcudaGKOCG:  Solving for p, Initial residual = 0.351158, Final residual = 9.92829e-05, No Iterations 280
linear solve p 1117209
time step continuity errors : sum local = 4.74946e-08, global = 2.32276e-21, cumulative = 2.45378e-20
[OGL LOG] init_host_sparsity_pattern : 314 ms
[OGL LOG] matrix not stored update host matrix
[OGL LOG] update_host_mtx : 159 ms
[OGL LOG] matrix is not yet sorted, sorting host matrix
[OGL LOG] sort_host_mtx_sparsity_pattern : 140 ms
[OGL LOG] sort_host_mtx : 84 ms
[OGL LOG] init_preconditioner : 0 ms
 CG create  precond 
[OGL LOG] solve : 355 ms
BJcudaGKOCG:  Solving for p, Initial residual = 0.30637, Final residual = 9.31583e-05, No Iterations 264
linear solve p 1099048
time step continuity errors : sum local = 4.16785e-08, global = -1.29643e-20, cumulative = 1.15735e-20
ExecutionTime = 40.75 s  ClockTime = 41 s

Time = 0.009

Courant Number mean: 0.124912 max: 0.853938
DILUPBiCGStab:  Solving for Ux, Initial residual = 0.00859672, Final residual = 6.83009e-05, No Iterations 5
DILUPBiCGStab:  Solving for Uy, Initial residual = 0.0226749, Final residual = 0.00013451, No Iterations 5
DILUPBiCGStab:  Solving for Uz, Initial residual = 0.0880619, Final residual = 0.00116736, No Iterations 5
linear solve U 602916
[OGL LOG] init_host_sparsity_pattern : 314 ms
[OGL LOG] matrix not stored update host matrix
[OGL LOG] update_host_mtx : 160 ms
[OGL LOG] matrix is not yet sorted, sorting host matrix
[OGL LOG] sort_host_mtx_sparsity_pattern : 122 ms
[OGL LOG] sort_host_mtx : 77 ms
[OGL LOG] init_preconditioner : 0 ms
 CG create  precond 
[OGL LOG] solve : 725 ms
BJcudaGKOCG:  Solving for p, Initial residual = 0.307139, Final residual = 9.68627e-05, No Iterations 537
linear solve p 1447030
time step continuity errors : sum local = 3.74598e-08, global = 6.59818e-21, cumulative = 1.81717e-20
[OGL LOG] init_host_sparsity_pattern : 313 ms
[OGL LOG] matrix not stored update host matrix
[OGL LOG] update_host_mtx : 160 ms
[OGL LOG] matrix is not yet sorted, sorting host matrix
[OGL LOG] sort_host_mtx_sparsity_pattern : 137 ms
[OGL LOG] sort_host_mtx : 77 ms
[OGL LOG] init_preconditioner : 0 ms
 CG create  precond 
[OGL LOG] solve : 722 ms
BJcudaGKOCG:  Solving for p, Initial residual = 0.265807, Final residual = 9.63422e-05, No Iterations 535
linear solve p 1455238
time step continuity errors : sum local = 3.7283e-08, global = -7.83361e-21, cumulative = 1.03381e-20
ExecutionTime = 44.67 s  ClockTime = 45 s

Time = 0.01

Courant Number mean: 0.129095 max: 0.856123
DILUPBiCGStab:  Solving for Ux, Initial residual = 0.00687332, Final residual = 4.81708e-05, No Iterations 5
DILUPBiCGStab:  Solving for Uy, Initial residual = 0.019841, Final residual = 0.000120195, No Iterations 5
DILUPBiCGStab:  Solving for Uz, Initial residual = 0.0721129, Final residual = 0.000857849, No Iterations 5
linear solve U 592739
[OGL LOG] init_host_sparsity_pattern : 313 ms
[OGL LOG] matrix not stored update host matrix
[OGL LOG] update_host_mtx : 160 ms
[OGL LOG] matrix is not yet sorted, sorting host matrix
[OGL LOG] sort_host_mtx_sparsity_pattern : 133 ms
[OGL LOG] sort_host_mtx : 82 ms
[OGL LOG] init_preconditioner : 0 ms
 CG create  precond 
[OGL LOG] solve : 351 ms
BJcudaGKOCG:  Solving for p, Initial residual = 0.240735, Final residual = 9.69899e-05, No Iterations 262
linear solve p 1088083
time step continuity errors : sum local = 4.02378e-08, global = -1.70518e-20, cumulative = -6.71373e-21
[OGL LOG] init_host_sparsity_pattern : 313 ms
[OGL LOG] matrix not stored update host matrix
[OGL LOG] update_host_mtx : 160 ms
[OGL LOG] matrix is not yet sorted, sorting host matrix
[OGL LOG] sort_host_mtx_sparsity_pattern : 137 ms
[OGL LOG] sort_host_mtx : 80 ms
[OGL LOG] init_preconditioner : 0 ms
 CG create  precond 
[OGL LOG] solve : 344 ms
BJcudaGKOCG:  Solving for p, Initial residual = 0.207738, Final residual = 9.9432e-05, No Iterations 257
linear solve p 1082157
time step continuity errors : sum local = 3.86668e-08, global = -1.42919e-20, cumulative = -2.10056e-20
ExecutionTime = 47.85 s  ClockTime = 48 s

End

