/*---------------------------------------------------------------------------*\
  =========                 |
  \\      /  F ield         | OpenFOAM: The Open Source CFD Toolbox
   \\    /   O peration     | Website:  https://openfoam.org
    \\  /    A nd           | Version:  8
     \\/     M anipulation  |
\*---------------------------------------------------------------------------*/
Build  : 8-40a5a48f630f
Exec   : icoFoam
Date   : Jul 28 2021
Time   : 11:50:56
Host   : "uc2n412.localdomain"
PID    : 4069046
I/O    : uncollated
Case   : /pfs/data5/home/kit/scc/nq7776/code/OBR/lidDrivenCavity3D/Variation_mesh/90/Variation_matrix_solver/BiCGStab_BJ_OMP/base
nProcs : 1
sigFpe : Enabling floating point exception trapping (FOAM_SIGFPE).
fileModificationChecking : Monitoring run-time modified files using timeStampMaster (fileModificationSkew 10)
allowSystemOperations : Allowing user-supplied system call operations

// * * * * * * * * * * * * * * * * * * * * * * * * * * * * * * * * * * * * * //
Create time

Create mesh for time = 0

Reading transportProperties

Reading field p

Reading field U

Reading/calculating face flux field phi


Starting time loop

Time = 0.001

Courant Number mean: 0 max: 0
nonePBiCGStab:  Solving for Ux, Initial residual = 1, Final residual = 0.0756268, No Iterations 5
nonePBiCGStab:  Solving for Uy, Initial residual = 0, Final residual = 0, No Iterations 0
nonePBiCGStab:  Solving for Uz, Initial residual = 0, Final residual = 0, No Iterations 0
linear solve U 185
[OGL LOG] init_host_sparsity_pattern : 207 ms
[OGL LOG] matrix not stored update host matrix
[OGL LOG] update_host_mtx : 107 ms
[OGL LOG] matrix is not yet sorted, compute sorting idxs
[OGL LOG] compute_sort : 6546 ms
[OGL LOG] matrix is not yet sorted, sorting host matrix
[OGL LOG] sort_host_mtx_sparsity_pattern : 155 ms
[OGL LOG] sort_host_mtx : 88 ms
[OGL LOG] init_preconditioner : 28 ms
[OGL LOG] solve : 10967 ms
BJompGKOBiCGStab:  Solving for p, Initial residual = 1, Final residual = 8.64788e-05, No Iterations 485
linear solve p 18268
time step continuity errors : sum local = 6.75104e-08, global = -7.35084e-21, cumulative = -7.35084e-21
[OGL LOG] init_host_sparsity_pattern : 207 ms
[OGL LOG] matrix not stored update host matrix
[OGL LOG] update_host_mtx : 107 ms
[OGL LOG] matrix is not yet sorted, sorting host matrix
[OGL LOG] sort_host_mtx_sparsity_pattern : 165 ms
[OGL LOG] sort_host_mtx : 89 ms
[OGL LOG] init_preconditioner : 0 ms
[OGL LOG] solve : 10233 ms
BJompGKOBiCGStab:  Solving for p, Initial residual = 0.701132, Final residual = 9.69855e-05, No Iterations 448
linear solve p 10940
time step continuity errors : sum local = 1.4212e-07, global = 6.037e-22, cumulative = -6.74714e-21
ExecutionTime = 222.97 s  ClockTime = 33 s

regIOobject::readIfModified() : 
    Re-reading object controlDict from file "/pfs/data5/home/kit/scc/nq7776/code/OBR/lidDrivenCavity3D/Variation_mesh/90/Variation_matrix_solver/BiCGStab_BJ_OMP/base/system/controlDict"
Time = 0.002

Courant Number mean: 0.0401009 max: 0.699777
nonePBiCGStab:  Solving for Ux, Initial residual = 0.140413, Final residual = 0.0352795, No Iterations 5
nonePBiCGStab:  Solving for Uy, Initial residual = 0.428673, Final residual = 0.104698, No Iterations 5
nonePBiCGStab:  Solving for Uz, Initial residual = 0.978406, Final residual = 0.28112, No Iterations 5
linear solve U 373
[OGL LOG] init_host_sparsity_pattern : 198 ms
[OGL LOG] matrix not stored update host matrix
[OGL LOG] update_host_mtx : 108 ms
[OGL LOG] matrix is not yet sorted, sorting host matrix
[OGL LOG] sort_host_mtx_sparsity_pattern : 155 ms
[OGL LOG] sort_host_mtx : 89 ms
[OGL LOG] init_preconditioner : 0 ms
[OGL LOG] solve : 10167 ms
BJompGKOBiCGStab:  Solving for p, Initial residual = 0.764409, Final residual = 9.82208e-05, No Iterations 451
linear solve p 10840
time step continuity errors : sum local = 3.3246e-07, global = 9.59001e-21, cumulative = 2.84287e-21
[OGL LOG] init_host_sparsity_pattern : 210 ms
[OGL LOG] matrix not stored update host matrix
[OGL LOG] update_host_mtx : 108 ms
[OGL LOG] matrix is not yet sorted, sorting host matrix
[OGL LOG] sort_host_mtx_sparsity_pattern : 155 ms
[OGL LOG] sort_host_mtx : 89 ms
[OGL LOG] init_preconditioner : 0 ms
[OGL LOG] solve : 10367 ms
BJompGKOBiCGStab:  Solving for p, Initial residual = 0.686742, Final residual = 2.91587e-05, No Iterations 446
linear solve p 11052
time step continuity errors : sum local = 1.02421e-05, global = -1.80409e-20, cumulative = -1.5198e-20
ExecutionTime = 430.06 s  ClockTime = 56 s

Time = 0.003

Courant Number mean: 0.0633558 max: 0.801234
nonePBiCGStab:  Solving for Ux, Initial residual = 0.0594858, Final residual = 0.0125974, No Iterations 5
nonePBiCGStab:  Solving for Uy, Initial residual = 0.185009, Final residual = 0.0489509, No Iterations 5
nonePBiCGStab:  Solving for Uz, Initial residual = 0.675483, Final residual = 0.251112, No Iterations 5
linear solve U 384
[OGL LOG] init_host_sparsity_pattern : 201 ms
[OGL LOG] matrix not stored update host matrix
[OGL LOG] update_host_mtx : 109 ms
[OGL LOG] matrix is not yet sorted, sorting host matrix
[OGL LOG] sort_host_mtx_sparsity_pattern : 155 ms
[OGL LOG] sort_host_mtx : 89 ms
[OGL LOG] init_preconditioner : 0 ms
[OGL LOG] solve : 10299 ms
BJompGKOBiCGStab:  Solving for p, Initial residual = 0.755134, Final residual = 4.69162e-05, No Iterations 453
linear solve p 10973
time step continuity errors : sum local = 3.33726e-08, global = -5.1743e-21, cumulative = -2.03723e-20
[OGL LOG] init_host_sparsity_pattern : 192 ms
[OGL LOG] matrix not stored update host matrix
[OGL LOG] update_host_mtx : 108 ms
[OGL LOG] matrix is not yet sorted, sorting host matrix
[OGL LOG] sort_host_mtx_sparsity_pattern : 151 ms
[OGL LOG] sort_host_mtx : 90 ms
[OGL LOG] init_preconditioner : 0 ms
[OGL LOG] solve : 9569 ms
BJompGKOBiCGStab:  Solving for p, Initial residual = 0.68377, Final residual = 9.70675e-05, No Iterations 416
linear solve p 10222
time step continuity errors : sum local = 1.44611e-07, global = 5.14755e-21, cumulative = -1.52248e-20
ExecutionTime = 630.45 s  ClockTime = 78 s

Time = 0.004

Courant Number mean: 0.0761996 max: 0.816869
nonePBiCGStab:  Solving for Ux, Initial residual = 0.0369559, Final residual = 0.00839461, No Iterations 5
nonePBiCGStab:  Solving for Uy, Initial residual = 0.128036, Final residual = 0.0350381, No Iterations 5
nonePBiCGStab:  Solving for Uz, Initial residual = 0.46049, Final residual = 0.125085, No Iterations 5
linear solve U 383
[OGL LOG] init_host_sparsity_pattern : 200 ms
[OGL LOG] matrix not stored update host matrix
[OGL LOG] update_host_mtx : 107 ms
[OGL LOG] matrix is not yet sorted, sorting host matrix
[OGL LOG] sort_host_mtx_sparsity_pattern : 155 ms
[OGL LOG] sort_host_mtx : 89 ms
[OGL LOG] init_preconditioner : 0 ms
[OGL LOG] solve : 8939 ms
BJompGKOBiCGStab:  Solving for p, Initial residual = 0.648425, Final residual = 9.69977e-05, No Iterations 386
linear solve p 9610
time step continuity errors : sum local = 8.13445e-07, global = 4.77188e-21, cumulative = -1.04529e-20
[OGL LOG] init_host_sparsity_pattern : 192 ms
[OGL LOG] matrix not stored update host matrix
[OGL LOG] update_host_mtx : 108 ms
[OGL LOG] matrix is not yet sorted, sorting host matrix
[OGL LOG] sort_host_mtx_sparsity_pattern : 151 ms
[OGL LOG] sort_host_mtx : 90 ms
[OGL LOG] init_preconditioner : 0 ms
[OGL LOG] solve : 10197 ms
BJompGKOBiCGStab:  Solving for p, Initial residual = 0.556644, Final residual = 6.45237e-05, No Iterations 444
linear solve p 10849
time step continuity errors : sum local = 4.50685e-08, global = 7.28683e-21, cumulative = -3.16608e-21
ExecutionTime = 823.59 s  ClockTime = 99 s

Time = 0.005

Courant Number mean: 0.0865867 max: 0.829204
nonePBiCGStab:  Solving for Ux, Initial residual = 0.0274283, Final residual = 0.00599168, No Iterations 5
nonePBiCGStab:  Solving for Uy, Initial residual = 0.0821156, Final residual = 0.0257487, No Iterations 5
nonePBiCGStab:  Solving for Uz, Initial residual = 0.291971, Final residual = 0.0875786, No Iterations 5
linear solve U 383
[OGL LOG] init_host_sparsity_pattern : 200 ms
[OGL LOG] matrix not stored update host matrix
[OGL LOG] update_host_mtx : 108 ms
[OGL LOG] matrix is not yet sorted, sorting host matrix
[OGL LOG] sort_host_mtx_sparsity_pattern : 155 ms
[OGL LOG] sort_host_mtx : 89 ms
[OGL LOG] init_preconditioner : 0 ms
[OGL LOG] solve : 10050 ms
BJompGKOBiCGStab:  Solving for p, Initial residual = 0.678349, Final residual = 9.17046e-05, No Iterations 434
linear solve p 10721
time step continuity errors : sum local = 1.40168e-07, global = 1.70906e-21, cumulative = -1.45702e-21
[OGL LOG] init_host_sparsity_pattern : 193 ms
[OGL LOG] matrix not stored update host matrix
[OGL LOG] update_host_mtx : 110 ms
[OGL LOG] matrix is not yet sorted, sorting host matrix
[OGL LOG] sort_host_mtx_sparsity_pattern : 150 ms
[OGL LOG] sort_host_mtx : 90 ms
[OGL LOG] init_preconditioner : 0 ms
[OGL LOG] solve : 10429 ms
BJompGKOBiCGStab:  Solving for p, Initial residual = 0.597985, Final residual = 3.39781e-05, No Iterations 453
linear solve p 11079
time step continuity errors : sum local = 2.06019e-08, global = -8.75536e-21, cumulative = -1.02124e-20
ExecutionTime = 1030.08 s  ClockTime = 122 s

Time = 0.006

Courant Number mean: 0.094703 max: 0.835927
nonePBiCGStab:  Solving for Ux, Initial residual = 0.0212395, Final residual = 0.00450803, No Iterations 5
nonePBiCGStab:  Solving for Uy, Initial residual = 0.0653383, Final residual = 0.0190139, No Iterations 5
nonePBiCGStab:  Solving for Uz, Initial residual = 0.206857, Final residual = 0.0534194, No Iterations 5
linear solve U 381
[OGL LOG] init_host_sparsity_pattern : 200 ms
[OGL LOG] matrix not stored update host matrix
[OGL LOG] update_host_mtx : 108 ms
[OGL LOG] matrix is not yet sorted, sorting host matrix
[OGL LOG] sort_host_mtx_sparsity_pattern : 151 ms
[OGL LOG] sort_host_mtx : 89 ms
[OGL LOG] init_preconditioner : 0 ms
[OGL LOG] solve : 4049 ms
BJompGKOBiCGStab:  Solving for p, Initial residual = 0.596696, Final residual = 9.55274e-05, No Iterations 175
linear solve p 4710
time step continuity errors : sum local = 1.20575e-07, global = 3.66872e-21, cumulative = -6.54366e-21
[OGL LOG] init_host_sparsity_pattern : 193 ms
[OGL LOG] matrix not stored update host matrix
[OGL LOG] update_host_mtx : 108 ms
[OGL LOG] matrix is not yet sorted, sorting host matrix
[OGL LOG] sort_host_mtx_sparsity_pattern : 150 ms
[OGL LOG] sort_host_mtx : 89 ms
[OGL LOG] init_preconditioner : 0 ms
[OGL LOG] solve : 4052 ms
BJompGKOBiCGStab:  Solving for p, Initial residual = 0.511527, Final residual = 9.92248e-05, No Iterations 176
linear solve p 4700
time step continuity errors : sum local = 1.17682e-07, global = 4.0604e-21, cumulative = -2.48326e-21
ExecutionTime = 1113.15 s  ClockTime = 132 s

Time = 0.007

Courant Number mean: 0.101657 max: 0.841268
nonePBiCGStab:  Solving for Ux, Initial residual = 0.0179544, Final residual = 0.00384797, No Iterations 5
nonePBiCGStab:  Solving for Uy, Initial residual = 0.0500734, Final residual = 0.0154034, No Iterations 5
nonePBiCGStab:  Solving for Uz, Initial residual = 0.156439, Final residual = 0.0458038, No Iterations 5
linear solve U 381
[OGL LOG] init_host_sparsity_pattern : 201 ms
[OGL LOG] matrix not stored update host matrix
[OGL LOG] update_host_mtx : 108 ms
[OGL LOG] matrix is not yet sorted, sorting host matrix
[OGL LOG] sort_host_mtx_sparsity_pattern : 150 ms
[OGL LOG] sort_host_mtx : 89 ms
[OGL LOG] init_preconditioner : 0 ms
[OGL LOG] solve : 4091 ms
BJompGKOBiCGStab:  Solving for p, Initial residual = 0.628454, Final residual = 9.91539e-05, No Iterations 177
linear solve p 4749
time step continuity errors : sum local = 1.14895e-07, global = -1.15718e-20, cumulative = -1.40551e-20
[OGL LOG] init_host_sparsity_pattern : 193 ms
[OGL LOG] matrix not stored update host matrix
[OGL LOG] update_host_mtx : 108 ms
[OGL LOG] matrix is not yet sorted, sorting host matrix
[OGL LOG] sort_host_mtx_sparsity_pattern : 151 ms
[OGL LOG] sort_host_mtx : 90 ms
[OGL LOG] init_preconditioner : 0 ms
[OGL LOG] solve : 3656 ms
BJompGKOBiCGStab:  Solving for p, Initial residual = 0.545557, Final residual = 5.93466e-05, No Iterations 159
linear solve p 4306
time step continuity errors : sum local = 5.0716e-07, global = 3.13728e-21, cumulative = -1.09178e-20
ExecutionTime = 1192.65 s  ClockTime = 142 s

Time = 0.008

Courant Number mean: 0.107497 max: 0.845102
nonePBiCGStab:  Solving for Ux, Initial residual = 0.014428, Final residual = 0.00312731, No Iterations 5
nonePBiCGStab:  Solving for Uy, Initial residual = 0.0454502, Final residual = 0.0123995, No Iterations 5
nonePBiCGStab:  Solving for Uz, Initial residual = 0.154431, Final residual = 0.0454008, No Iterations 5
linear solve U 381
[OGL LOG] init_host_sparsity_pattern : 200 ms
[OGL LOG] matrix not stored update host matrix
[OGL LOG] update_host_mtx : 108 ms
[OGL LOG] matrix is not yet sorted, sorting host matrix
[OGL LOG] sort_host_mtx_sparsity_pattern : 150 ms
[OGL LOG] sort_host_mtx : 90 ms
[OGL LOG] init_preconditioner : 0 ms
[OGL LOG] solve : 9425 ms
BJompGKOBiCGStab:  Solving for p, Initial residual = 0.575804, Final residual = 9.68227e-05, No Iterations 422
linear solve p 10083
time step continuity errors : sum local = 6.01704e-08, global = 1.39662e-20, cumulative = 3.04847e-21
[OGL LOG] init_host_sparsity_pattern : 197 ms
[OGL LOG] matrix not stored update host matrix
[OGL LOG] update_host_mtx : 107 ms
[OGL LOG] matrix is not yet sorted, sorting host matrix
[OGL LOG] sort_host_mtx_sparsity_pattern : 155 ms
[OGL LOG] sort_host_mtx : 89 ms
[OGL LOG] init_preconditioner : 0 ms
[OGL LOG] solve : 8614 ms
BJompGKOBiCGStab:  Solving for p, Initial residual = 0.493063, Final residual = 9.96721e-05, No Iterations 374
linear solve p 9284
time step continuity errors : sum local = 6.44455e-08, global = 1.37271e-20, cumulative = 1.67756e-20
ExecutionTime = 1374.83 s  ClockTime = 162 s

Time = 0.009

Courant Number mean: 0.112661 max: 0.848246
nonePBiCGStab:  Solving for Ux, Initial residual = 0.0133546, Final residual = 0.00265335, No Iterations 5
nonePBiCGStab:  Solving for Uy, Initial residual = 0.0361079, Final residual = 0.0101164, No Iterations 5
nonePBiCGStab:  Solving for Uz, Initial residual = 0.132141, Final residual = 0.0381269, No Iterations 5
linear solve U 383
[OGL LOG] init_host_sparsity_pattern : 200 ms
[OGL LOG] matrix not stored update host matrix
[OGL LOG] update_host_mtx : 107 ms
[OGL LOG] matrix is not yet sorted, sorting host matrix
[OGL LOG] sort_host_mtx_sparsity_pattern : 155 ms
[OGL LOG] sort_host_mtx : 89 ms
[OGL LOG] init_preconditioner : 0 ms
[OGL LOG] solve : 7057 ms
BJompGKOBiCGStab:  Solving for p, Initial residual = 0.602039, Final residual = 9.18546e-05, No Iterations 307
linear solve p 7729
time step continuity errors : sum local = 1.52252e-06, global = -1.49811e-20, cumulative = 1.79452e-21
[OGL LOG] init_host_sparsity_pattern : 192 ms
[OGL LOG] matrix not stored update host matrix
[OGL LOG] update_host_mtx : 107 ms
[OGL LOG] matrix is not yet sorted, sorting host matrix
[OGL LOG] sort_host_mtx_sparsity_pattern : 150 ms
[OGL LOG] sort_host_mtx : 89 ms
[OGL LOG] init_preconditioner : 0 ms
[OGL LOG] solve : 4207 ms
BJompGKOBiCGStab:  Solving for p, Initial residual = 0.519165, Final residual = 9.89224e-05, No Iterations 183
linear solve p 4855
time step continuity errors : sum local = 6.73023e-08, global = -2.4194e-21, cumulative = -6.2488e-22
ExecutionTime = 1489.44 s  ClockTime = 175 s

Time = 0.01

Courant Number mean: 0.1172 max: 0.850509
nonePBiCGStab:  Solving for Ux, Initial residual = 0.0114685, Final residual = 0.00276088, No Iterations 5
nonePBiCGStab:  Solving for Uy, Initial residual = 0.033064, Final residual = 0.00940143, No Iterations 5
nonePBiCGStab:  Solving for Uz, Initial residual = 0.124658, Final residual = 0.0424441, No Iterations 5
linear solve U 381
[OGL LOG] init_host_sparsity_pattern : 200 ms
[OGL LOG] matrix not stored update host matrix
[OGL LOG] update_host_mtx : 108 ms
[OGL LOG] matrix is not yet sorted, sorting host matrix
[OGL LOG] sort_host_mtx_sparsity_pattern : 150 ms
[OGL LOG] sort_host_mtx : 91 ms
[OGL LOG] init_preconditioner : 0 ms
[OGL LOG] solve : 10066 ms
BJompGKOBiCGStab:  Solving for p, Initial residual = 0.559284, Final residual = 5.54823e-05, No Iterations 442
linear solve p 10728
time step continuity errors : sum local = 1.02169e-07, global = 1.0805e-20, cumulative = 1.01801e-20
[OGL LOG] init_host_sparsity_pattern : 197 ms
[OGL LOG] matrix not stored update host matrix
[OGL LOG] update_host_mtx : 108 ms
[OGL LOG] matrix is not yet sorted, sorting host matrix
[OGL LOG] sort_host_mtx_sparsity_pattern : 155 ms
[OGL LOG] sort_host_mtx : 89 ms
[OGL LOG] init_preconditioner : 0 ms
[OGL LOG] solve : 9706 ms
BJompGKOBiCGStab:  Solving for p, Initial residual = 0.477335, Final residual = 8.69668e-05, No Iterations 421
linear solve p 10373
time step continuity errors : sum local = 7.88079e-08, global = -1.61934e-22, cumulative = 1.00182e-20
ExecutionTime = 1688.94 s  ClockTime = 197 s

End

