/*---------------------------------------------------------------------------*\
  =========                 |
  \\      /  F ield         | OpenFOAM: The Open Source CFD Toolbox
   \\    /   O peration     | Website:  https://openfoam.org
    \\  /    A nd           | Version:  8
     \\/     M anipulation  |
\*---------------------------------------------------------------------------*/
Build  : 8-ef60d22ea792
Exec   : icoFoam
Date   : Jul 28 2021
Time   : 22:03:13
Host   : "uc2n428.localdomain"
PID    : 4070929
I/O    : uncollated
Case   : /pfs/data5/home/kit/scc/nq7776/code/OBR/lidDrivenCavity3D/Variation_mesh/15/Variation_matrix_solver/BiCGStab_NoPrecond_OMP/base
nProcs : 1
sigFpe : Enabling floating point exception trapping (FOAM_SIGFPE).
fileModificationChecking : Monitoring run-time modified files using timeStampMaster (fileModificationSkew 10)
allowSystemOperations : Allowing user-supplied system call operations

// * * * * * * * * * * * * * * * * * * * * * * * * * * * * * * * * * * * * * //
Create time

Create mesh for time = 0

Reading transportProperties

Reading field p

Reading field U

Reading/calculating face flux field phi


Starting time loop

Time = 0.001

Courant Number mean: 0 max: 0
DILUPBiCGStab:  Solving for Ux, Initial residual = 1, Final residual = 1.1028e-13, No Iterations 5
DILUPBiCGStab:  Solving for Uy:  solution singularity
DILUPBiCGStab:  Solving for Uz:  solution singularity
linear solve U 1240
[OGL LOG] init_host_sparsity_pattern : 0 ms
[OGL LOG] matrix not stored update host matrix
[OGL LOG] update_host_mtx : 0 ms
[OGL LOG] matrix is not yet sorted, compute sorting idxs
[OGL LOG] compute_sort : 21 ms
[OGL LOG] matrix is not yet sorted, sorting host matrix
[OGL LOG] sort_host_mtx_sparsity_pattern : 0 ms
[OGL LOG] sort_host_mtx : 0 ms
[OGL LOG] init_preconditioner : 0 ms
[OGL LOG] solve : 15 ms
noneompGKOBiCGStab:  Solving for p, Initial residual = 1, Final residual = 3.62624e-05, No Iterations 98
linear solve p 41434
time step continuity errors : sum local = 1.3409e-06, global = -1.88845e-20, cumulative = -1.88845e-20
[OGL LOG] init_host_sparsity_pattern : 0 ms
[OGL LOG] matrix not stored update host matrix
[OGL LOG] update_host_mtx : 0 ms
[OGL LOG] matrix is not yet sorted, sorting host matrix
[OGL LOG] sort_host_mtx_sparsity_pattern : 0 ms
[OGL LOG] sort_host_mtx : 0 ms
[OGL LOG] init_preconditioner : 0 ms
[OGL LOG] solve : 13 ms
noneompGKOBiCGStab:  Solving for p, Initial residual = 0.3176, Final residual = 7.41497e-05, No Iterations 91
linear solve p 16617
time step continuity errors : sum local = 3.31659e-06, global = 1.16176e-20, cumulative = -7.26689e-21
ExecutionTime = 0.34 s  ClockTime = 0 s

Time = 0.002

Courant Number mean: 0.00559551 max: 0.0357001
DILUPBiCGStab:  Solving for Ux, Initial residual = 0.242426, Final residual = 1.13992e-14, No Iterations 5
DILUPBiCGStab:  Solving for Uy, Initial residual = 0.296206, Final residual = 1.12657e-14, No Iterations 5
DILUPBiCGStab:  Solving for Uz, Initial residual = 0.634914, Final residual = 4.07032e-14, No Iterations 5
linear solve U 2078
[OGL LOG] init_host_sparsity_pattern : 0 ms
[OGL LOG] matrix not stored update host matrix
[OGL LOG] update_host_mtx : 0 ms
[OGL LOG] matrix is not yet sorted, sorting host matrix
[OGL LOG] sort_host_mtx_sparsity_pattern : 0 ms
[OGL LOG] sort_host_mtx : 0 ms
[OGL LOG] init_preconditioner : 0 ms
[OGL LOG] solve : 13 ms
noneompGKOBiCGStab:  Solving for p, Initial residual = 0.161358, Final residual = 4.1116e-05, No Iterations 87
linear solve p 16148
time step continuity errors : sum local = 4.97236e-06, global = 2.01352e-20, cumulative = 1.28683e-20
[OGL LOG] init_host_sparsity_pattern : 0 ms
[OGL LOG] matrix not stored update host matrix
[OGL LOG] update_host_mtx : 0 ms
[OGL LOG] matrix is not yet sorted, sorting host matrix
[OGL LOG] sort_host_mtx_sparsity_pattern : 0 ms
[OGL LOG] sort_host_mtx : 0 ms
[OGL LOG] init_preconditioner : 0 ms
[OGL LOG] solve : 11 ms
noneompGKOBiCGStab:  Solving for p, Initial residual = 0.0661141, Final residual = 9.73728e-05, No Iterations 76
linear solve p 14358
time step continuity errors : sum local = 3.78221e-07, global = -9.31778e-21, cumulative = 3.55057e-21
ExecutionTime = 0.59 s  ClockTime = 0 s

Time = 0.003

Courant Number mean: 0.00940326 max: 0.0587301
DILUPBiCGStab:  Solving for Ux, Initial residual = 0.117889, Final residual = 5.34232e-15, No Iterations 5
DILUPBiCGStab:  Solving for Uy, Initial residual = 0.148869, Final residual = 5.33484e-15, No Iterations 5
DILUPBiCGStab:  Solving for Uz, Initial residual = 0.339101, Final residual = 2.60947e-14, No Iterations 5
linear solve U 2079
[OGL LOG] init_host_sparsity_pattern : 0 ms
[OGL LOG] matrix not stored update host matrix
[OGL LOG] update_host_mtx : 0 ms
[OGL LOG] matrix is not yet sorted, sorting host matrix
[OGL LOG] sort_host_mtx_sparsity_pattern : 0 ms
[OGL LOG] sort_host_mtx : 0 ms
[OGL LOG] init_preconditioner : 0 ms
[OGL LOG] solve : 6 ms
noneompGKOBiCGStab:  Solving for p, Initial residual = 0.0778911, Final residual = 9.6723e-05, No Iterations 42
linear solve p 9444
time step continuity errors : sum local = 9.60041e-08, global = -1.50985e-20, cumulative = -1.1548e-20
[OGL LOG] init_host_sparsity_pattern : 0 ms
[OGL LOG] matrix not stored update host matrix
[OGL LOG] update_host_mtx : 0 ms
[OGL LOG] matrix is not yet sorted, sorting host matrix
[OGL LOG] sort_host_mtx_sparsity_pattern : 0 ms
[OGL LOG] sort_host_mtx : 0 ms
[OGL LOG] init_preconditioner : 0 ms
[OGL LOG] solve : 5 ms
noneompGKOBiCGStab:  Solving for p, Initial residual = 0.0345024, Final residual = 9.65584e-05, No Iterations 33
linear solve p 8146
time step continuity errors : sum local = 1.34374e-07, global = -3.99801e-20, cumulative = -5.15281e-20
ExecutionTime = 0.75 s  ClockTime = 0 s

Time = 0.004

Courant Number mean: 0.0121904 max: 0.073727
DILUPBiCGStab:  Solving for Ux, Initial residual = 0.0723267, Final residual = 2.9901e-15, No Iterations 5
DILUPBiCGStab:  Solving for Uy, Initial residual = 0.0916626, Final residual = 3.02117e-15, No Iterations 5
DILUPBiCGStab:  Solving for Uz, Initial residual = 0.183492, Final residual = 7.15474e-15, No Iterations 5
linear solve U 2083
[OGL LOG] init_host_sparsity_pattern : 0 ms
[OGL LOG] matrix not stored update host matrix
[OGL LOG] update_host_mtx : 0 ms
[OGL LOG] matrix is not yet sorted, sorting host matrix
[OGL LOG] sort_host_mtx_sparsity_pattern : 0 ms
[OGL LOG] sort_host_mtx : 0 ms
[OGL LOG] init_preconditioner : 0 ms
[OGL LOG] solve : 7 ms
noneompGKOBiCGStab:  Solving for p, Initial residual = 0.0493706, Final residual = 9.83344e-05, No Iterations 46
linear solve p 10089
time step continuity errors : sum local = 3.31802e-07, global = 2.43704e-20, cumulative = -2.71577e-20
[OGL LOG] init_host_sparsity_pattern : 0 ms
[OGL LOG] matrix not stored update host matrix
[OGL LOG] update_host_mtx : 0 ms
[OGL LOG] matrix is not yet sorted, sorting host matrix
[OGL LOG] sort_host_mtx_sparsity_pattern : 0 ms
[OGL LOG] sort_host_mtx : 0 ms
[OGL LOG] init_preconditioner : 0 ms
[OGL LOG] solve : 4 ms
noneompGKOBiCGStab:  Solving for p, Initial residual = 0.0223212, Final residual = 9.87147e-05, No Iterations 32
linear solve p 7903
time step continuity errors : sum local = 1.13981e-07, global = -2.94311e-21, cumulative = -3.01008e-20
ExecutionTime = 0.91 s  ClockTime = 0 s

Time = 0.005

Courant Number mean: 0.0143061 max: 0.0838052
DILUPBiCGStab:  Solving for Ux, Initial residual = 0.048563, Final residual = 1.79931e-15, No Iterations 5
DILUPBiCGStab:  Solving for Uy, Initial residual = 0.0627371, Final residual = 1.74785e-15, No Iterations 5
DILUPBiCGStab:  Solving for Uz, Initial residual = 0.13105, Final residual = 4.84678e-15, No Iterations 5
linear solve U 2083
[OGL LOG] init_host_sparsity_pattern : 0 ms
[OGL LOG] matrix not stored update host matrix
[OGL LOG] update_host_mtx : 0 ms
[OGL LOG] matrix is not yet sorted, sorting host matrix
[OGL LOG] sort_host_mtx_sparsity_pattern : 0 ms
[OGL LOG] sort_host_mtx : 0 ms
[OGL LOG] init_preconditioner : 0 ms
[OGL LOG] solve : 11 ms
noneompGKOBiCGStab:  Solving for p, Initial residual = 0.0360556, Final residual = 7.6949e-05, No Iterations 74
linear solve p 14051
time step continuity errors : sum local = 2.32329e-06, global = 2.34431e-20, cumulative = -6.65767e-21
[OGL LOG] init_host_sparsity_pattern : 0 ms
[OGL LOG] matrix not stored update host matrix
[OGL LOG] update_host_mtx : 0 ms
[OGL LOG] matrix is not yet sorted, sorting host matrix
[OGL LOG] sort_host_mtx_sparsity_pattern : 0 ms
[OGL LOG] sort_host_mtx : 0 ms
[OGL LOG] init_preconditioner : 0 ms
[OGL LOG] solve : 4 ms
noneompGKOBiCGStab:  Solving for p, Initial residual = 0.0175704, Final residual = 9.84093e-05, No Iterations 32
linear solve p 7908
time step continuity errors : sum local = 1.53726e-07, global = 6.22288e-21, cumulative = -4.34787e-22
ExecutionTime = 1.11 s  ClockTime = 0 s

Time = 0.006

Courant Number mean: 0.0159486 max: 0.0908033
DILUPBiCGStab:  Solving for Ux, Initial residual = 0.0353439, Final residual = 1.17466e-15, No Iterations 5
DILUPBiCGStab:  Solving for Uy, Initial residual = 0.0461088, Final residual = 1.06277e-15, No Iterations 5
DILUPBiCGStab:  Solving for Uz, Initial residual = 0.0995693, Final residual = 4.08772e-15, No Iterations 5
linear solve U 2082
[OGL LOG] init_host_sparsity_pattern : 0 ms
[OGL LOG] matrix not stored update host matrix
[OGL LOG] update_host_mtx : 0 ms
[OGL LOG] matrix is not yet sorted, sorting host matrix
[OGL LOG] sort_host_mtx_sparsity_pattern : 0 ms
[OGL LOG] sort_host_mtx : 0 ms
[OGL LOG] init_preconditioner : 0 ms
[OGL LOG] solve : 10 ms
noneompGKOBiCGStab:  Solving for p, Initial residual = 0.0291057, Final residual = 9.89918e-05, No Iterations 67
linear solve p 13125
time step continuity errors : sum local = 2.33493e-07, global = -3.04907e-20, cumulative = -3.09255e-20
[OGL LOG] init_host_sparsity_pattern : 0 ms
[OGL LOG] matrix not stored update host matrix
[OGL LOG] update_host_mtx : 0 ms
[OGL LOG] matrix is not yet sorted, sorting host matrix
[OGL LOG] sort_host_mtx_sparsity_pattern : 0 ms
[OGL LOG] sort_host_mtx : 0 ms
[OGL LOG] init_preconditioner : 0 ms
[OGL LOG] solve : 4 ms
noneompGKOBiCGStab:  Solving for p, Initial residual = 0.0111274, Final residual = 8.75682e-05, No Iterations 28
linear solve p 7343
time step continuity errors : sum local = 1.62231e-07, global = 3.13427e-20, cumulative = 4.17209e-22
ExecutionTime = 1.29 s  ClockTime = 0 s

Time = 0.007

Courant Number mean: 0.0172722 max: 0.0958252
DILUPBiCGStab:  Solving for Ux, Initial residual = 0.0271544, Final residual = 8.71088e-16, No Iterations 5
DILUPBiCGStab:  Solving for Uy, Initial residual = 0.0356407, Final residual = 7.40473e-16, No Iterations 5
DILUPBiCGStab:  Solving for Uz, Initial residual = 0.0793994, Final residual = 3.16763e-15, No Iterations 5
linear solve U 2090
[OGL LOG] init_host_sparsity_pattern : 0 ms
[OGL LOG] matrix not stored update host matrix
[OGL LOG] update_host_mtx : 0 ms
[OGL LOG] matrix is not yet sorted, sorting host matrix
[OGL LOG] sort_host_mtx_sparsity_pattern : 0 ms
[OGL LOG] sort_host_mtx : 0 ms
[OGL LOG] init_preconditioner : 0 ms
[OGL LOG] solve : 9 ms
noneompGKOBiCGStab:  Solving for p, Initial residual = 0.0217777, Final residual = 9.90384e-05, No Iterations 64
linear solve p 12689
time step continuity errors : sum local = 2.65763e-07, global = 4.9544e-20, cumulative = 4.99612e-20
[OGL LOG] init_host_sparsity_pattern : 0 ms
[OGL LOG] matrix not stored update host matrix
[OGL LOG] update_host_mtx : 0 ms
[OGL LOG] matrix is not yet sorted, sorting host matrix
[OGL LOG] sort_host_mtx_sparsity_pattern : 0 ms
[OGL LOG] sort_host_mtx : 0 ms
[OGL LOG] init_preconditioner : 0 ms
[OGL LOG] solve : 4 ms
noneompGKOBiCGStab:  Solving for p, Initial residual = 0.00869992, Final residual = 9.86169e-05, No Iterations 29
linear solve p 7568
time step continuity errors : sum local = 1.86283e-07, global = -9.08079e-21, cumulative = 4.08804e-20
ExecutionTime = 1.46 s  ClockTime = 0 s

Time = 0.008

Courant Number mean: 0.0183558 max: 0.0995501
DILUPBiCGStab:  Solving for Ux, Initial residual = 0.0216544, Final residual = 6.38868e-16, No Iterations 5
DILUPBiCGStab:  Solving for Uy, Initial residual = 0.02862, Final residual = 5.78864e-16, No Iterations 5
DILUPBiCGStab:  Solving for Uz, Initial residual = 0.0649112, Final residual = 2.45523e-15, No Iterations 5
linear solve U 2085
[OGL LOG] init_host_sparsity_pattern : 0 ms
[OGL LOG] matrix not stored update host matrix
[OGL LOG] update_host_mtx : 0 ms
[OGL LOG] matrix is not yet sorted, sorting host matrix
[OGL LOG] sort_host_mtx_sparsity_pattern : 0 ms
[OGL LOG] sort_host_mtx : 0 ms
[OGL LOG] init_preconditioner : 0 ms
[OGL LOG] solve : 9 ms
noneompGKOBiCGStab:  Solving for p, Initial residual = 0.0163244, Final residual = 9.76777e-05, No Iterations 64
linear solve p 12801
time step continuity errors : sum local = 1.8689e-07, global = -5.8399e-21, cumulative = 3.50405e-20
[OGL LOG] init_host_sparsity_pattern : 0 ms
[OGL LOG] matrix not stored update host matrix
[OGL LOG] update_host_mtx : 0 ms
[OGL LOG] matrix is not yet sorted, sorting host matrix
[OGL LOG] sort_host_mtx_sparsity_pattern : 0 ms
[OGL LOG] sort_host_mtx : 0 ms
[OGL LOG] init_preconditioner : 0 ms
[OGL LOG] solve : 3 ms
noneompGKOBiCGStab:  Solving for p, Initial residual = 0.00665939, Final residual = 9.23425e-05, No Iterations 26
linear solve p 7001
time step continuity errors : sum local = 1.94701e-07, global = 1.36212e-20, cumulative = 4.86617e-20
ExecutionTime = 1.64 s  ClockTime = 0 s

Time = 0.009

Courant Number mean: 0.0192556 max: 0.102395
DILUPBiCGStab:  Solving for Ux, Initial residual = 0.017673, Final residual = 4.37162e-16, No Iterations 5
DILUPBiCGStab:  Solving for Uy, Initial residual = 0.0236365, Final residual = 4.8257e-16, No Iterations 5
DILUPBiCGStab:  Solving for Uz, Initial residual = 0.0544208, Final residual = 1.94257e-15, No Iterations 5
linear solve U 2081
[OGL LOG] init_host_sparsity_pattern : 0 ms
[OGL LOG] matrix not stored update host matrix
[OGL LOG] update_host_mtx : 0 ms
[OGL LOG] matrix is not yet sorted, sorting host matrix
[OGL LOG] sort_host_mtx_sparsity_pattern : 0 ms
[OGL LOG] sort_host_mtx : 0 ms
[OGL LOG] init_preconditioner : 0 ms
[OGL LOG] solve : 7 ms
noneompGKOBiCGStab:  Solving for p, Initial residual = 0.0132823, Final residual = 9.92109e-05, No Iterations 51
linear solve p 10731
time step continuity errors : sum local = 2.19733e-07, global = -2.17383e-21, cumulative = 4.64879e-20
[OGL LOG] init_host_sparsity_pattern : 0 ms
[OGL LOG] matrix not stored update host matrix
[OGL LOG] update_host_mtx : 0 ms
[OGL LOG] matrix is not yet sorted, sorting host matrix
[OGL LOG] sort_host_mtx_sparsity_pattern : 0 ms
[OGL LOG] sort_host_mtx : 0 ms
[OGL LOG] init_preconditioner : 0 ms
[OGL LOG] solve : 4 ms
noneompGKOBiCGStab:  Solving for p, Initial residual = 0.0054325, Final residual = 9.5001e-05, No Iterations 27
linear solve p 7226
time step continuity errors : sum local = 1.99282e-07, global = -4.91569e-20, cumulative = -2.669e-21
ExecutionTime = 1.8 s  ClockTime = 0 s

Time = 0.01

Courant Number mean: 0.0200147 max: 0.104627
DILUPBiCGStab:  Solving for Ux, Initial residual = 0.0147267, Final residual = 2.84323e-16, No Iterations 5
DILUPBiCGStab:  Solving for Uy, Initial residual = 0.0199355, Final residual = 4.01433e-16, No Iterations 5
DILUPBiCGStab:  Solving for Uz, Initial residual = 0.046296, Final residual = 1.56928e-15, No Iterations 5
linear solve U 2085
[OGL LOG] init_host_sparsity_pattern : 0 ms
[OGL LOG] matrix not stored update host matrix
[OGL LOG] update_host_mtx : 0 ms
[OGL LOG] matrix is not yet sorted, sorting host matrix
[OGL LOG] sort_host_mtx_sparsity_pattern : 0 ms
[OGL LOG] sort_host_mtx : 0 ms
[OGL LOG] init_preconditioner : 0 ms
[OGL LOG] solve : 9 ms
noneompGKOBiCGStab:  Solving for p, Initial residual = 0.0111488, Final residual = 8.7572e-05, No Iterations 64
linear solve p 12780
time step continuity errors : sum local = 1.63755e-07, global = -1.8734e-20, cumulative = -2.1403e-20
[OGL LOG] init_host_sparsity_pattern : 0 ms
[OGL LOG] matrix not stored update host matrix
[OGL LOG] update_host_mtx : 0 ms
[OGL LOG] matrix is not yet sorted, sorting host matrix
[OGL LOG] sort_host_mtx_sparsity_pattern : 0 ms
[OGL LOG] sort_host_mtx : 0 ms
[OGL LOG] init_preconditioner : 0 ms
[OGL LOG] solve : 3 ms
noneompGKOBiCGStab:  Solving for p, Initial residual = 0.00448485, Final residual = 9.88493e-05, No Iterations 26
linear solve p 6972
time step continuity errors : sum local = 1.61725e-07, global = -1.78836e-21, cumulative = -2.31913e-20
ExecutionTime = 1.97 s  ClockTime = 0 s

End

