/*---------------------------------------------------------------------------*\
  =========                 |
  \\      /  F ield         | OpenFOAM: The Open Source CFD Toolbox
   \\    /   O peration     | Website:  https://openfoam.org
    \\  /    A nd           | Version:  8
     \\/     M anipulation  |
\*---------------------------------------------------------------------------*/
Build  : 8-40a5a48f630f
Exec   : icoFoam
Date   : Jul 28 2021
Time   : 12:31:28
Host   : "uc2n374.localdomain"
PID    : 2724860
I/O    : uncollated
Case   : /pfs/data5/home/kit/scc/nq7776/code/OBR/lidDrivenCavity3D/Variation_mesh/40/Variation_matrix_solver/BiCGStab_NoPrecond_OMP/base
nProcs : 1
sigFpe : Enabling floating point exception trapping (FOAM_SIGFPE).
fileModificationChecking : Monitoring run-time modified files using timeStampMaster (fileModificationSkew 10)
allowSystemOperations : Allowing user-supplied system call operations

// * * * * * * * * * * * * * * * * * * * * * * * * * * * * * * * * * * * * * //
Create time

Create mesh for time = 0

Reading transportProperties

Reading field p

Reading field U

Reading/calculating face flux field phi


Starting time loop

Time = 0.001

Courant Number mean: 0 max: 0
nonePBiCGStab:  Solving for Ux, Initial residual = 1, Final residual = 0.0197517, No Iterations 5
nonePBiCGStab:  Solving for Uy, Initial residual = 0, Final residual = 0, No Iterations 0
nonePBiCGStab:  Solving for Uz, Initial residual = 0, Final residual = 0, No Iterations 0
linear solve U 15
[OGL LOG] init_host_sparsity_pattern : 19 ms
[OGL LOG] matrix not stored update host matrix
[OGL LOG] update_host_mtx : 10 ms
[OGL LOG] matrix is not yet sorted, compute sorting idxs
[OGL LOG] compute_sort : 513 ms
[OGL LOG] matrix is not yet sorted, sorting host matrix
[OGL LOG] sort_host_mtx_sparsity_pattern : 13 ms
[OGL LOG] sort_host_mtx : 8 ms
[OGL LOG] init_preconditioner : 0 ms
[OGL LOG] solve : 485 ms
noneompGKOBiCGStab:  Solving for p, Initial residual = 1, Final residual = 8.58855e-05, No Iterations 253
linear solve p 1091
time step continuity errors : sum local = 2.04737e-07, global = -1.80205e-20, cumulative = -1.80205e-20
[OGL LOG] init_host_sparsity_pattern : 19 ms
[OGL LOG] matrix not stored update host matrix
[OGL LOG] update_host_mtx : 10 ms
[OGL LOG] matrix is not yet sorted, sorting host matrix
[OGL LOG] sort_host_mtx_sparsity_pattern : 13 ms
[OGL LOG] sort_host_mtx : 6 ms
[OGL LOG] init_preconditioner : 0 ms
[OGL LOG] solve : 359 ms
noneompGKOBiCGStab:  Solving for p, Initial residual = 0.598491, Final residual = 8.25483e-05, No Iterations 247
linear solve p 419
time step continuity errors : sum local = 4.24571e-07, global = 4.02382e-21, cumulative = -1.39967e-20
ExecutionTime = 27.85 s  ClockTime = 2 s

Time = 0.002

Courant Number mean: 0.0210261 max: 0.237017
nonePBiCGStab:  Solving for Ux, Initial residual = 0.177795, Final residual = 0.00671773, No Iterations 5
nonePBiCGStab:  Solving for Uy, Initial residual = 0.294132, Final residual = 0.00774656, No Iterations 5
nonePBiCGStab:  Solving for Uz, Initial residual = 0.945219, Final residual = 0.0380414, No Iterations 5
linear solve U 28
[OGL LOG] init_host_sparsity_pattern : 18 ms
[OGL LOG] matrix not stored update host matrix
[OGL LOG] update_host_mtx : 9 ms
[OGL LOG] matrix is not yet sorted, sorting host matrix
[OGL LOG] sort_host_mtx_sparsity_pattern : 13 ms
[OGL LOG] sort_host_mtx : 6 ms
[OGL LOG] init_preconditioner : 0 ms
[OGL LOG] solve : 349 ms
noneompGKOBiCGStab:  Solving for p, Initial residual = 0.458064, Final residual = 6.81293e-05, No Iterations 236
linear solve p 411
time step continuity errors : sum local = 5.41053e-07, global = -1.02333e-20, cumulative = -2.423e-20
[OGL LOG] init_host_sparsity_pattern : 18 ms
[OGL LOG] matrix not stored update host matrix
[OGL LOG] update_host_mtx : 9 ms
[OGL LOG] matrix is not yet sorted, sorting host matrix
[OGL LOG] sort_host_mtx_sparsity_pattern : 15 ms
[OGL LOG] sort_host_mtx : 6 ms
[OGL LOG] init_preconditioner : 0 ms
[OGL LOG] solve : 345 ms
noneompGKOBiCGStab:  Solving for p, Initial residual = 0.361508, Final residual = 9.56114e-05, No Iterations 237
linear solve p 406
time step continuity errors : sum local = 2.34727e-07, global = 2.68639e-21, cumulative = -2.15436e-20
ExecutionTime = 50.63 s  ClockTime = 3 s

Time = 0.003

Courant Number mean: 0.0321034 max: 0.305907
nonePBiCGStab:  Solving for Ux, Initial residual = 0.0656001, Final residual = 0.0012512, No Iterations 5
nonePBiCGStab:  Solving for Uy, Initial residual = 0.108141, Final residual = 0.0018131, No Iterations 5
nonePBiCGStab:  Solving for Uz, Initial residual = 0.201635, Final residual = 0.00852565, No Iterations 5
linear solve U 29
[OGL LOG] init_host_sparsity_pattern : 18 ms
[OGL LOG] matrix not stored update host matrix
[OGL LOG] update_host_mtx : 10 ms
[OGL LOG] matrix is not yet sorted, sorting host matrix
[OGL LOG] sort_host_mtx_sparsity_pattern : 13 ms
[OGL LOG] sort_host_mtx : 6 ms
[OGL LOG] init_preconditioner : 0 ms
[OGL LOG] solve : 320 ms
noneompGKOBiCGStab:  Solving for p, Initial residual = 0.164951, Final residual = 9.28989e-05, No Iterations 220
linear solve p 378
time step continuity errors : sum local = 6.22553e-07, global = 1.18249e-20, cumulative = -9.71867e-21
[OGL LOG] init_host_sparsity_pattern : 18 ms
[OGL LOG] matrix not stored update host matrix
[OGL LOG] update_host_mtx : 8 ms
[OGL LOG] matrix is not yet sorted, sorting host matrix
[OGL LOG] sort_host_mtx_sparsity_pattern : 13 ms
[OGL LOG] sort_host_mtx : 6 ms
[OGL LOG] init_preconditioner : 0 ms
[OGL LOG] solve : 128 ms
noneompGKOBiCGStab:  Solving for p, Initial residual = 0.129629, Final residual = 8.9886e-05, No Iterations 87
linear solve p 184
time step continuity errors : sum local = 9.80505e-08, global = -2.57042e-20, cumulative = -3.54229e-20
ExecutionTime = 65.54 s  ClockTime = 4 s

Time = 0.004

Courant Number mean: 0.0386761 max: 0.327553
nonePBiCGStab:  Solving for Ux, Initial residual = 0.0388671, Final residual = 0.000604962, No Iterations 5
nonePBiCGStab:  Solving for Uy, Initial residual = 0.067028, Final residual = 0.000760661, No Iterations 5
nonePBiCGStab:  Solving for Uz, Initial residual = 0.133485, Final residual = 0.00428621, No Iterations 5
linear solve U 28
[OGL LOG] init_host_sparsity_pattern : 19 ms
[OGL LOG] matrix not stored update host matrix
[OGL LOG] update_host_mtx : 10 ms
[OGL LOG] matrix is not yet sorted, sorting host matrix
[OGL LOG] sort_host_mtx_sparsity_pattern : 13 ms
[OGL LOG] sort_host_mtx : 6 ms
[OGL LOG] init_preconditioner : 0 ms
[OGL LOG] solve : 305 ms
noneompGKOBiCGStab:  Solving for p, Initial residual = 0.0861592, Final residual = 9.23912e-05, No Iterations 205
linear solve p 364
time step continuity errors : sum local = 9.19962e-08, global = -1.10429e-22, cumulative = -3.55334e-20
[OGL LOG] init_host_sparsity_pattern : 18 ms
[OGL LOG] matrix not stored update host matrix
[OGL LOG] update_host_mtx : 9 ms
[OGL LOG] matrix is not yet sorted, sorting host matrix
[OGL LOG] sort_host_mtx_sparsity_pattern : 13 ms
[OGL LOG] sort_host_mtx : 6 ms
[OGL LOG] init_preconditioner : 0 ms
[OGL LOG] solve : 314 ms
noneompGKOBiCGStab:  Solving for p, Initial residual = 0.0664064, Final residual = 9.85139e-05, No Iterations 205
linear solve p 373
time step continuity errors : sum local = 1.19068e-07, global = 2.00904e-20, cumulative = -1.5443e-20
ExecutionTime = 85.89 s  ClockTime = 5 s

Time = 0.005

Courant Number mean: 0.0434796 max: 0.337864
nonePBiCGStab:  Solving for Ux, Initial residual = 0.0269288, Final residual = 0.000349575, No Iterations 5
nonePBiCGStab:  Solving for Uy, Initial residual = 0.0468419, Final residual = 0.000506702, No Iterations 5
nonePBiCGStab:  Solving for Uz, Initial residual = 0.0959425, Final residual = 0.00298788, No Iterations 5
linear solve U 28
[OGL LOG] init_host_sparsity_pattern : 19 ms
[OGL LOG] matrix not stored update host matrix
[OGL LOG] update_host_mtx : 10 ms
[OGL LOG] matrix is not yet sorted, sorting host matrix
[OGL LOG] sort_host_mtx_sparsity_pattern : 14 ms
[OGL LOG] sort_host_mtx : 6 ms
[OGL LOG] init_preconditioner : 0 ms
[OGL LOG] solve : 294 ms
noneompGKOBiCGStab:  Solving for p, Initial residual = 0.0450362, Final residual = 9.55511e-05, No Iterations 197
linear solve p 354
time step continuity errors : sum local = 2.3698e-07, global = -1.41653e-21, cumulative = -1.68595e-20
[OGL LOG] init_host_sparsity_pattern : 19 ms
[OGL LOG] matrix not stored update host matrix
[OGL LOG] update_host_mtx : 10 ms
[OGL LOG] matrix is not yet sorted, sorting host matrix
[OGL LOG] sort_host_mtx_sparsity_pattern : 14 ms
[OGL LOG] sort_host_mtx : 6 ms
[OGL LOG] init_preconditioner : 0 ms
[OGL LOG] solve : 120 ms
noneompGKOBiCGStab:  Solving for p, Initial residual = 0.0361783, Final residual = 5.03133e-05, No Iterations 81
linear solve p 180
time step continuity errors : sum local = 1.11152e-07, global = 2.71263e-21, cumulative = -1.41469e-20
ExecutionTime = 99.71 s  ClockTime = 5 s

Time = 0.006

Courant Number mean: 0.0471982 max: 0.344027
nonePBiCGStab:  Solving for Ux, Initial residual = 0.020465, Final residual = 0.000222402, No Iterations 5
nonePBiCGStab:  Solving for Uy, Initial residual = 0.0356582, Final residual = 0.000286881, No Iterations 5
nonePBiCGStab:  Solving for Uz, Initial residual = 0.0722866, Final residual = 0.00191999, No Iterations 5
linear solve U 28
[OGL LOG] init_host_sparsity_pattern : 18 ms
[OGL LOG] matrix not stored update host matrix
[OGL LOG] update_host_mtx : 9 ms
[OGL LOG] matrix is not yet sorted, sorting host matrix
[OGL LOG] sort_host_mtx_sparsity_pattern : 13 ms
[OGL LOG] sort_host_mtx : 6 ms
[OGL LOG] init_preconditioner : 0 ms
[OGL LOG] solve : 309 ms
noneompGKOBiCGStab:  Solving for p, Initial residual = 0.0308089, Final residual = 9.99068e-05, No Iterations 209
linear solve p 367
time step continuity errors : sum local = 9.96004e-08, global = 2.27752e-20, cumulative = 8.62828e-21
[OGL LOG] init_host_sparsity_pattern : 19 ms
[OGL LOG] matrix not stored update host matrix
[OGL LOG] update_host_mtx : 10 ms
[OGL LOG] matrix is not yet sorted, sorting host matrix
[OGL LOG] sort_host_mtx_sparsity_pattern : 13 ms
[OGL LOG] sort_host_mtx : 6 ms
[OGL LOG] init_preconditioner : 0 ms
[OGL LOG] solve : 123 ms
noneompGKOBiCGStab:  Solving for p, Initial residual = 0.0250156, Final residual = 9.65986e-05, No Iterations 83
linear solve p 182
time step continuity errors : sum local = 1.15698e-07, global = -2.98761e-20, cumulative = -2.12479e-20
ExecutionTime = 114.1 s  ClockTime = 6 s

Time = 0.007

Courant Number mean: 0.050231 max: 0.348254
nonePBiCGStab:  Solving for Ux, Initial residual = 0.0162029, Final residual = 0.000149918, No Iterations 5
nonePBiCGStab:  Solving for Uy, Initial residual = 0.0286889, Final residual = 0.000208388, No Iterations 5
nonePBiCGStab:  Solving for Uz, Initial residual = 0.0578408, Final residual = 0.00138821, No Iterations 5
linear solve U 28
[OGL LOG] init_host_sparsity_pattern : 17 ms
[OGL LOG] matrix not stored update host matrix
[OGL LOG] update_host_mtx : 9 ms
[OGL LOG] matrix is not yet sorted, sorting host matrix
[OGL LOG] sort_host_mtx_sparsity_pattern : 13 ms
[OGL LOG] sort_host_mtx : 6 ms
[OGL LOG] init_preconditioner : 0 ms
[OGL LOG] solve : 297 ms
noneompGKOBiCGStab:  Solving for p, Initial residual = 0.0237338, Final residual = 9.81655e-05, No Iterations 205
linear solve p 353
time step continuity errors : sum local = 8.38166e-08, global = -7.78726e-22, cumulative = -2.20266e-20
[OGL LOG] init_host_sparsity_pattern : 18 ms
[OGL LOG] matrix not stored update host matrix
[OGL LOG] update_host_mtx : 9 ms
[OGL LOG] matrix is not yet sorted, sorting host matrix
[OGL LOG] sort_host_mtx_sparsity_pattern : 13 ms
[OGL LOG] sort_host_mtx : 6 ms
[OGL LOG] init_preconditioner : 0 ms
[OGL LOG] solve : 118 ms
noneompGKOBiCGStab:  Solving for p, Initial residual = 0.0197136, Final residual = 9.12018e-05, No Iterations 80
linear solve p 174
time step continuity errors : sum local = 8.67238e-08, global = -2.79717e-22, cumulative = -2.23063e-20
ExecutionTime = 127.94 s  ClockTime = 6 s

Time = 0.008

Courant Number mean: 0.0528006 max: 0.351369
nonePBiCGStab:  Solving for Ux, Initial residual = 0.0133725, Final residual = 0.000102955, No Iterations 5
nonePBiCGStab:  Solving for Uy, Initial residual = 0.0235476, Final residual = 0.000152281, No Iterations 5
nonePBiCGStab:  Solving for Uz, Initial residual = 0.0475544, Final residual = 0.0010421, No Iterations 5
linear solve U 28
[OGL LOG] init_host_sparsity_pattern : 19 ms
[OGL LOG] matrix not stored update host matrix
[OGL LOG] update_host_mtx : 10 ms
[OGL LOG] matrix is not yet sorted, sorting host matrix
[OGL LOG] sort_host_mtx_sparsity_pattern : 14 ms
[OGL LOG] sort_host_mtx : 6 ms
[OGL LOG] init_preconditioner : 0 ms
[OGL LOG] solve : 290 ms
noneompGKOBiCGStab:  Solving for p, Initial residual = 0.0186006, Final residual = 9.43836e-05, No Iterations 201
linear solve p 350
time step continuity errors : sum local = 1.59777e-06, global = 8.3469e-21, cumulative = -1.39594e-20
[OGL LOG] init_host_sparsity_pattern : 18 ms
[OGL LOG] matrix not stored update host matrix
[OGL LOG] update_host_mtx : 9 ms
[OGL LOG] matrix is not yet sorted, sorting host matrix
[OGL LOG] sort_host_mtx_sparsity_pattern : 13 ms
[OGL LOG] sort_host_mtx : 6 ms
[OGL LOG] init_preconditioner : 0 ms
[OGL LOG] solve : 126 ms
noneompGKOBiCGStab:  Solving for p, Initial residual = 0.0179699, Final residual = 9.70266e-05, No Iterations 83
linear solve p 184
time step continuity errors : sum local = 7.90032e-08, global = -3.4321e-21, cumulative = -1.73915e-20
ExecutionTime = 141.82 s  ClockTime = 7 s

Time = 0.009

Courant Number mean: 0.0549871 max: 0.35378
nonePBiCGStab:  Solving for Ux, Initial residual = 0.0111835, Final residual = 9.56293e-05, No Iterations 5
nonePBiCGStab:  Solving for Uy, Initial residual = 0.0200369, Final residual = 0.000162443, No Iterations 5
nonePBiCGStab:  Solving for Uz, Initial residual = 0.0421025, Final residual = 0.00103129, No Iterations 5
linear solve U 28
[OGL LOG] init_host_sparsity_pattern : 19 ms
[OGL LOG] matrix not stored update host matrix
[OGL LOG] update_host_mtx : 10 ms
[OGL LOG] matrix is not yet sorted, sorting host matrix
[OGL LOG] sort_host_mtx_sparsity_pattern : 13 ms
[OGL LOG] sort_host_mtx : 6 ms
[OGL LOG] init_preconditioner : 0 ms
[OGL LOG] solve : 124 ms
noneompGKOBiCGStab:  Solving for p, Initial residual = 0.016139, Final residual = 9.78495e-05, No Iterations 84
linear solve p 183
time step continuity errors : sum local = 1.27002e-07, global = 2.66776e-20, cumulative = 9.28605e-21
[OGL LOG] init_host_sparsity_pattern : 19 ms
[OGL LOG] matrix not stored update host matrix
[OGL LOG] update_host_mtx : 10 ms
[OGL LOG] matrix is not yet sorted, sorting host matrix
[OGL LOG] sort_host_mtx_sparsity_pattern : 13 ms
[OGL LOG] sort_host_mtx : 6 ms
[OGL LOG] init_preconditioner : 0 ms
[OGL LOG] solve : 120 ms
noneompGKOBiCGStab:  Solving for p, Initial residual = 0.013285, Final residual = 9.39553e-05, No Iterations 81
linear solve p 180
time step continuity errors : sum local = 1.14926e-07, global = -9.18637e-21, cumulative = 9.96749e-23
ExecutionTime = 150.23 s  ClockTime = 7 s

Time = 0.01

Courant Number mean: 0.0568684 max: 0.355707
nonePBiCGStab:  Solving for Ux, Initial residual = 0.00954494, Final residual = 5.27939e-05, No Iterations 5
nonePBiCGStab:  Solving for Uy, Initial residual = 0.0171368, Final residual = 6.90825e-05, No Iterations 5
nonePBiCGStab:  Solving for Uz, Initial residual = 0.0346544, Final residual = 0.000388924, No Iterations 5
linear solve U 28
[OGL LOG] init_host_sparsity_pattern : 19 ms
[OGL LOG] matrix not stored update host matrix
[OGL LOG] update_host_mtx : 10 ms
[OGL LOG] matrix is not yet sorted, sorting host matrix
[OGL LOG] sort_host_mtx_sparsity_pattern : 13 ms
[OGL LOG] sort_host_mtx : 6 ms
[OGL LOG] init_preconditioner : 0 ms
[OGL LOG] solve : 111 ms
noneompGKOBiCGStab:  Solving for p, Initial residual = 0.0136429, Final residual = 8.76063e-05, No Iterations 75
linear solve p 169
time step continuity errors : sum local = 1.05824e-07, global = -1.13476e-20, cumulative = -1.1248e-20
[OGL LOG] init_host_sparsity_pattern : 18 ms
[OGL LOG] matrix not stored update host matrix
[OGL LOG] update_host_mtx : 10 ms
[OGL LOG] matrix is not yet sorted, sorting host matrix
[OGL LOG] sort_host_mtx_sparsity_pattern : 13 ms
[OGL LOG] sort_host_mtx : 6 ms
[OGL LOG] init_preconditioner : 0 ms
[OGL LOG] solve : 116 ms
noneompGKOBiCGStab:  Solving for p, Initial residual = 0.011552, Final residual = 9.86721e-05, No Iterations 78
linear solve p 175
time step continuity errors : sum local = 9.405e-08, global = -1.66935e-21, cumulative = -1.29173e-20
ExecutionTime = 158.08 s  ClockTime = 8 s

End

