/*---------------------------------------------------------------------------*\
  =========                 |
  \\      /  F ield         | OpenFOAM: The Open Source CFD Toolbox
   \\    /   O peration     | Website:  https://openfoam.org
    \\  /    A nd           | Version:  8
     \\/     M anipulation  |
\*---------------------------------------------------------------------------*/
Build  : 8-ef60d22ea792
Exec   : icoFoam
Date   : Jul 29 2021
Time   : 01:41:48
Host   : "uc2n414.localdomain"
PID    : 2846248
I/O    : uncollated
Case   : /pfs/data5/home/kit/scc/nq7776/code/OBR/lidDrivenCavity3D/Variation_mesh/95/Variation_matrix_solver/CG_BJ_OMP/base
nProcs : 1
sigFpe : Enabling floating point exception trapping (FOAM_SIGFPE).
fileModificationChecking : Monitoring run-time modified files using timeStampMaster (fileModificationSkew 10)
allowSystemOperations : Allowing user-supplied system call operations

// * * * * * * * * * * * * * * * * * * * * * * * * * * * * * * * * * * * * * //
Create time

Create mesh for time = 0

Reading transportProperties

Reading field p

Reading field U

Reading/calculating face flux field phi


Starting time loop

Time = 0.001

Courant Number mean: 0 max: 0
DILUPBiCGStab:  Solving for Ux, Initial residual = 1, Final residual = 0.00597808, No Iterations 5
DILUPBiCGStab:  Solving for Uy:  solution singularity
DILUPBiCGStab:  Solving for Uz:  solution singularity
linear solve U 410738
[OGL LOG] init_host_sparsity_pattern : 260 ms
[OGL LOG] matrix not stored update host matrix
[OGL LOG] update_host_mtx : 126 ms
[OGL LOG] matrix is not yet sorted, compute sorting idxs
[OGL LOG] compute_sort : 7690 ms
[OGL LOG] matrix is not yet sorted, sorting host matrix
[OGL LOG] sort_host_mtx_sparsity_pattern : 175 ms
[OGL LOG] sort_host_mtx : 110 ms
[OGL LOG] init_preconditioner : 227 ms
 CG create  precond 
[OGL LOG] solve : 46067 ms
BJompGKOCG:  Solving for p, Initial residual = 1, Final residual = 9.99744e-05, No Iterations 631
linear solve p 54838581
time step continuity errors : sum local = 5.77205e-08, global = 9.79546e-21, cumulative = 9.79546e-21
[OGL LOG] init_host_sparsity_pattern : 250 ms
[OGL LOG] matrix not stored update host matrix
[OGL LOG] update_host_mtx : 126 ms
[OGL LOG] matrix is not yet sorted, sorting host matrix
[OGL LOG] sort_host_mtx_sparsity_pattern : 178 ms
[OGL LOG] sort_host_mtx : 111 ms
[OGL LOG] init_preconditioner : 0 ms
 CG create  precond 
[OGL LOG] solve : 44894 ms
BJompGKOCG:  Solving for p, Initial residual = 0.770645, Final residual = 9.7936e-05, No Iterations 615
linear solve p 45688196
time step continuity errors : sum local = 7.18139e-08, global = -1.98391e-21, cumulative = 7.81155e-21
ExecutionTime = 104.25 s  ClockTime = 105 s

Time = 0.002

Courant Number mean: 0.0534417 max: 0.757475
DILUPBiCGStab:  Solving for Ux, Initial residual = 0.140128, Final residual = 0.00255032, No Iterations 5
DILUPBiCGStab:  Solving for Uy, Initial residual = 0.419605, Final residual = 0.00695945, No Iterations 5
DILUPBiCGStab:  Solving for Uz, Initial residual = 0.989675, Final residual = 0.0178024, No Iterations 5
linear solve U 810272
[OGL LOG] init_host_sparsity_pattern : 238 ms
[OGL LOG] matrix not stored update host matrix
[OGL LOG] update_host_mtx : 132 ms
[OGL LOG] matrix is not yet sorted, sorting host matrix
[OGL LOG] sort_host_mtx_sparsity_pattern : 178 ms
[OGL LOG] sort_host_mtx : 111 ms
[OGL LOG] init_preconditioner : 0 ms
 CG create  precond 
[OGL LOG] solve : 44324 ms
BJompGKOCG:  Solving for p, Initial residual = 0.783553, Final residual = 9.39869e-05, No Iterations 608
linear solve p 45112755
time step continuity errors : sum local = 9.30761e-08, global = 7.38418e-21, cumulative = 1.51957e-20
[OGL LOG] init_host_sparsity_pattern : 239 ms
[OGL LOG] matrix not stored update host matrix
[OGL LOG] update_host_mtx : 127 ms
[OGL LOG] matrix is not yet sorted, sorting host matrix
[OGL LOG] sort_host_mtx_sparsity_pattern : 178 ms
[OGL LOG] sort_host_mtx : 111 ms
[OGL LOG] init_preconditioner : 0 ms
 CG create  precond 
[OGL LOG] solve : 44090 ms
BJompGKOCG:  Solving for p, Initial residual = 0.7229, Final residual = 9.68362e-05, No Iterations 606
linear solve p 44875311
time step continuity errors : sum local = 9.78716e-08, global = 7.90062e-21, cumulative = 2.30963e-20
ExecutionTime = 195.29 s  ClockTime = 196 s

Time = 0.003

Courant Number mean: 0.0810139 max: 0.886813
DILUPBiCGStab:  Solving for Ux, Initial residual = 0.0625976, Final residual = 0.000877145, No Iterations 5
DILUPBiCGStab:  Solving for Uy, Initial residual = 0.202723, Final residual = 0.00232318, No Iterations 5
DILUPBiCGStab:  Solving for Uz, Initial residual = 0.778877, Final residual = 0.0126636, No Iterations 5
linear solve U 808838
[OGL LOG] init_host_sparsity_pattern : 239 ms
[OGL LOG] matrix not stored update host matrix
[OGL LOG] update_host_mtx : 126 ms
[OGL LOG] matrix is not yet sorted, sorting host matrix
[OGL LOG] sort_host_mtx_sparsity_pattern : 177 ms
[OGL LOG] sort_host_mtx : 111 ms
[OGL LOG] init_preconditioner : 0 ms
 CG create  precond 
[OGL LOG] solve : 26470 ms
BJompGKOCG:  Solving for p, Initial residual = 0.809005, Final residual = 9.75176e-05, No Iterations 363
linear solve p 27252961
time step continuity errors : sum local = 8.92256e-08, global = -4.63666e-21, cumulative = 1.84597e-20
[OGL LOG] init_host_sparsity_pattern : 238 ms
[OGL LOG] matrix not stored update host matrix
[OGL LOG] update_host_mtx : 127 ms
[OGL LOG] matrix is not yet sorted, sorting host matrix
[OGL LOG] sort_host_mtx_sparsity_pattern : 177 ms
[OGL LOG] sort_host_mtx : 110 ms
[OGL LOG] init_preconditioner : 0 ms
 CG create  precond 
[OGL LOG] solve : 26344 ms
BJompGKOCG:  Solving for p, Initial residual = 0.776106, Final residual = 9.79955e-05, No Iterations 361
linear solve p 27125454
time step continuity errors : sum local = 8.54728e-08, global = 3.39048e-21, cumulative = 2.18502e-20
ExecutionTime = 250.8 s  ClockTime = 251 s

Time = 0.004

Courant Number mean: 0.0936155 max: 0.877122
DILUPBiCGStab:  Solving for Ux, Initial residual = 0.0356763, Final residual = 0.00061717, No Iterations 5
DILUPBiCGStab:  Solving for Uy, Initial residual = 0.148241, Final residual = 0.0022421, No Iterations 5
DILUPBiCGStab:  Solving for Uz, Initial residual = 0.57983, Final residual = 0.00799499, No Iterations 5
linear solve U 812267
[OGL LOG] init_host_sparsity_pattern : 237 ms
[OGL LOG] matrix not stored update host matrix
[OGL LOG] update_host_mtx : 127 ms
[OGL LOG] matrix is not yet sorted, sorting host matrix
[OGL LOG] sort_host_mtx_sparsity_pattern : 185 ms
[OGL LOG] sort_host_mtx : 111 ms
[OGL LOG] init_preconditioner : 0 ms
 CG create  precond 
[OGL LOG] solve : 26111 ms
BJompGKOCG:  Solving for p, Initial residual = 0.704823, Final residual = 9.75475e-05, No Iterations 358
linear solve p 26899389
time step continuity errors : sum local = 8.0924e-08, global = 1.27638e-21, cumulative = 2.31265e-20
[OGL LOG] init_host_sparsity_pattern : 240 ms
[OGL LOG] matrix not stored update host matrix
[OGL LOG] update_host_mtx : 127 ms
[OGL LOG] matrix is not yet sorted, sorting host matrix
[OGL LOG] sort_host_mtx_sparsity_pattern : 177 ms
[OGL LOG] sort_host_mtx : 110 ms
[OGL LOG] init_preconditioner : 0 ms
 CG create  precond 
[OGL LOG] solve : 24122 ms
BJompGKOCG:  Solving for p, Initial residual = 0.6391, Final residual = 9.70682e-05, No Iterations 331
linear solve p 24906170
time step continuity errors : sum local = 7.94591e-08, global = -2.43658e-21, cumulative = 2.069e-20
ExecutionTime = 303.76 s  ClockTime = 305 s

Time = 0.005

Courant Number mean: 0.105259 max: 0.88966
DILUPBiCGStab:  Solving for Ux, Initial residual = 0.0274659, Final residual = 0.000432741, No Iterations 5
DILUPBiCGStab:  Solving for Uy, Initial residual = 0.0812158, Final residual = 0.00141316, No Iterations 5
DILUPBiCGStab:  Solving for Uz, Initial residual = 0.484079, Final residual = 0.00623432, No Iterations 5
linear solve U 810308
[OGL LOG] init_host_sparsity_pattern : 238 ms
[OGL LOG] matrix not stored update host matrix
[OGL LOG] update_host_mtx : 127 ms
[OGL LOG] matrix is not yet sorted, sorting host matrix
[OGL LOG] sort_host_mtx_sparsity_pattern : 178 ms
[OGL LOG] sort_host_mtx : 111 ms
[OGL LOG] init_preconditioner : 0 ms
 CG create  precond 
[OGL LOG] solve : 23699 ms
BJompGKOCG:  Solving for p, Initial residual = 0.699301, Final residual = 9.81277e-05, No Iterations 325
linear solve p 24482386
time step continuity errors : sum local = 6.95505e-08, global = 8.67684e-21, cumulative = 2.93668e-20
[OGL LOG] init_host_sparsity_pattern : 238 ms
[OGL LOG] matrix not stored update host matrix
[OGL LOG] update_host_mtx : 127 ms
[OGL LOG] matrix is not yet sorted, sorting host matrix
[OGL LOG] sort_host_mtx_sparsity_pattern : 177 ms
[OGL LOG] sort_host_mtx : 112 ms
[OGL LOG] init_preconditioner : 0 ms
 CG create  precond 
[OGL LOG] solve : 21873 ms
BJompGKOCG:  Solving for p, Initial residual = 0.648237, Final residual = 9.836e-05, No Iterations 300
linear solve p 22657039
time step continuity errors : sum local = 6.47306e-08, global = 1.13583e-20, cumulative = 4.07251e-20
ExecutionTime = 352.05 s  ClockTime = 353 s

Time = 0.006

Courant Number mean: 0.113391 max: 0.895057
DILUPBiCGStab:  Solving for Ux, Initial residual = 0.0177913, Final residual = 0.000284088, No Iterations 5
DILUPBiCGStab:  Solving for Uy, Initial residual = 0.067217, Final residual = 0.00104602, No Iterations 5
DILUPBiCGStab:  Solving for Uz, Initial residual = 0.347076, Final residual = 0.00454157, No Iterations 5
linear solve U 805428
[OGL LOG] init_host_sparsity_pattern : 238 ms
[OGL LOG] matrix not stored update host matrix
[OGL LOG] update_host_mtx : 127 ms
[OGL LOG] matrix is not yet sorted, sorting host matrix
[OGL LOG] sort_host_mtx_sparsity_pattern : 177 ms
[OGL LOG] sort_host_mtx : 110 ms
[OGL LOG] init_preconditioner : 0 ms
 CG create  precond 
[OGL LOG] solve : 23062 ms
BJompGKOCG:  Solving for p, Initial residual = 0.581974, Final residual = 9.85434e-05, No Iterations 316
linear solve p 23844499
time step continuity errors : sum local = 6.12985e-08, global = -3.46635e-21, cumulative = 3.72587e-20
[OGL LOG] init_host_sparsity_pattern : 238 ms
[OGL LOG] matrix not stored update host matrix
[OGL LOG] update_host_mtx : 129 ms
[OGL LOG] matrix is not yet sorted, sorting host matrix
[OGL LOG] sort_host_mtx_sparsity_pattern : 177 ms
[OGL LOG] sort_host_mtx : 110 ms
[OGL LOG] init_preconditioner : 0 ms
 CG create  precond 
[OGL LOG] solve : 22742 ms
BJompGKOCG:  Solving for p, Initial residual = 0.523298, Final residual = 9.89067e-05, No Iterations 312
linear solve p 23526444
time step continuity errors : sum local = 5.93213e-08, global = -9.95795e-21, cumulative = 2.73008e-20
ExecutionTime = 400.58 s  ClockTime = 402 s

Time = 0.007

Courant Number mean: 0.120594 max: 0.898291
DILUPBiCGStab:  Solving for Ux, Initial residual = 0.0152466, Final residual = 0.000219203, No Iterations 5
DILUPBiCGStab:  Solving for Uy, Initial residual = 0.043773, Final residual = 0.000706443, No Iterations 5
DILUPBiCGStab:  Solving for Uz, Initial residual = 0.264561, Final residual = 0.00350918, No Iterations 5
linear solve U 817375
[OGL LOG] init_host_sparsity_pattern : 240 ms
[OGL LOG] matrix not stored update host matrix
[OGL LOG] update_host_mtx : 128 ms
[OGL LOG] matrix is not yet sorted, sorting host matrix
[OGL LOG] sort_host_mtx_sparsity_pattern : 177 ms
[OGL LOG] sort_host_mtx : 110 ms
[OGL LOG] init_preconditioner : 0 ms
 CG create  precond 
[OGL LOG] solve : 43393 ms
BJompGKOCG:  Solving for p, Initial residual = 0.562192, Final residual = 9.65195e-05, No Iterations 596
linear solve p 44178012
time step continuity errors : sum local = 4.78559e-08, global = 3.57462e-21, cumulative = 3.08754e-20
[OGL LOG] init_host_sparsity_pattern : 238 ms
[OGL LOG] matrix not stored update host matrix
[OGL LOG] update_host_mtx : 127 ms
[OGL LOG] matrix is not yet sorted, sorting host matrix
[OGL LOG] sort_host_mtx_sparsity_pattern : 178 ms
[OGL LOG] sort_host_mtx : 112 ms
[OGL LOG] init_preconditioner : 0 ms
 CG create  precond 
[OGL LOG] solve : 43263 ms
BJompGKOCG:  Solving for p, Initial residual = 0.504798, Final residual = 9.68938e-05, No Iterations 594
linear solve p 44049215
time step continuity errors : sum local = 4.78372e-08, global = -6.41829e-21, cumulative = 2.44571e-20
ExecutionTime = 489.85 s  ClockTime = 491 s

Time = 0.008

Courant Number mean: 0.126416 max: 0.902022
DILUPBiCGStab:  Solving for Ux, Initial residual = 0.0110602, Final residual = 0.000149439, No Iterations 5
DILUPBiCGStab:  Solving for Uy, Initial residual = 0.0375005, Final residual = 0.000547707, No Iterations 5
DILUPBiCGStab:  Solving for Uz, Initial residual = 0.19745, Final residual = 0.00262077, No Iterations 5
linear solve U 811623
[OGL LOG] init_host_sparsity_pattern : 240 ms
[OGL LOG] matrix not stored update host matrix
[OGL LOG] update_host_mtx : 127 ms
[OGL LOG] matrix is not yet sorted, sorting host matrix
[OGL LOG] sort_host_mtx_sparsity_pattern : 177 ms
[OGL LOG] sort_host_mtx : 111 ms
[OGL LOG] init_preconditioner : 0 ms
 CG create  precond 
[OGL LOG] solve : 21696 ms
BJompGKOCG:  Solving for p, Initial residual = 0.459213, Final residual = 9.77877e-05, No Iterations 297
linear solve p 22489169
time step continuity errors : sum local = 4.928e-08, global = -3.05114e-21, cumulative = 2.1406e-20
[OGL LOG] init_host_sparsity_pattern : 240 ms
[OGL LOG] matrix not stored update host matrix
[OGL LOG] update_host_mtx : 129 ms
[OGL LOG] matrix is not yet sorted, sorting host matrix
[OGL LOG] sort_host_mtx_sparsity_pattern : 177 ms
[OGL LOG] sort_host_mtx : 110 ms
[OGL LOG] init_preconditioner : 0 ms
 CG create  precond 
[OGL LOG] solve : 21526 ms
BJompGKOCG:  Solving for p, Initial residual = 0.406916, Final residual = 9.49257e-05, No Iterations 295
linear solve p 22312510
time step continuity errors : sum local = 4.63423e-08, global = -4.00336e-21, cumulative = 1.74026e-20
ExecutionTime = 535.78 s  ClockTime = 537 s

Time = 0.009

Courant Number mean: 0.131553 max: 0.903728
DILUPBiCGStab:  Solving for Ux, Initial residual = 0.0096544, Final residual = 0.000116482, No Iterations 5
DILUPBiCGStab:  Solving for Uy, Initial residual = 0.0273314, Final residual = 0.000335188, No Iterations 5
DILUPBiCGStab:  Solving for Uz, Initial residual = 0.148125, Final residual = 0.00217061, No Iterations 5
linear solve U 802182
[OGL LOG] init_host_sparsity_pattern : 239 ms
[OGL LOG] matrix not stored update host matrix
[OGL LOG] update_host_mtx : 127 ms
[OGL LOG] matrix is not yet sorted, sorting host matrix
[OGL LOG] sort_host_mtx_sparsity_pattern : 179 ms
[OGL LOG] sort_host_mtx : 112 ms
[OGL LOG] init_preconditioner : 0 ms
 CG create  precond 
[OGL LOG] solve : 42890 ms
BJompGKOCG:  Solving for p, Initial residual = 0.428098, Final residual = 9.74684e-05, No Iterations 588
linear solve p 43677244
time step continuity errors : sum local = 4.09699e-08, global = 8.41707e-21, cumulative = 2.58197e-20
[OGL LOG] init_host_sparsity_pattern : 241 ms
[OGL LOG] matrix not stored update host matrix
[OGL LOG] update_host_mtx : 127 ms
[OGL LOG] matrix is not yet sorted, sorting host matrix
[OGL LOG] sort_host_mtx_sparsity_pattern : 178 ms
[OGL LOG] sort_host_mtx : 111 ms
[OGL LOG] init_preconditioner : 0 ms
 CG create  precond 
[OGL LOG] solve : 42258 ms
BJompGKOCG:  Solving for p, Initial residual = 0.375898, Final residual = 9.97339e-05, No Iterations 580
linear solve p 43046913
time step continuity errors : sum local = 4.19233e-08, global = -2.68007e-20, cumulative = -9.81037e-22
ExecutionTime = 623.46 s  ClockTime = 625 s

Time = 0.01

Courant Number mean: 0.135966 max: 0.906065
DILUPBiCGStab:  Solving for Ux, Initial residual = 0.00755456, Final residual = 8.36418e-05, No Iterations 5
DILUPBiCGStab:  Solving for Uy, Initial residual = 0.0238147, Final residual = 0.000280256, No Iterations 5
DILUPBiCGStab:  Solving for Uz, Initial residual = 0.116083, Final residual = 0.00173112, No Iterations 5
linear solve U 818913
[OGL LOG] init_host_sparsity_pattern : 238 ms
[OGL LOG] matrix not stored update host matrix
[OGL LOG] update_host_mtx : 128 ms
[OGL LOG] matrix is not yet sorted, sorting host matrix
[OGL LOG] sort_host_mtx_sparsity_pattern : 179 ms
[OGL LOG] sort_host_mtx : 112 ms
[OGL LOG] init_preconditioner : 0 ms
 CG create  precond 
[OGL LOG] solve : 21473 ms
BJompGKOCG:  Solving for p, Initial residual = 0.350932, Final residual = 9.51376e-05, No Iterations 294
linear solve p 22260155
time step continuity errors : sum local = 4.08661e-08, global = 7.0248e-21, cumulative = 6.04377e-21
[OGL LOG] init_host_sparsity_pattern : 238 ms
[OGL LOG] matrix not stored update host matrix
[OGL LOG] update_host_mtx : 129 ms
[OGL LOG] matrix is not yet sorted, sorting host matrix
[OGL LOG] sort_host_mtx_sparsity_pattern : 178 ms
[OGL LOG] sort_host_mtx : 112 ms
[OGL LOG] init_preconditioner : 0 ms
 CG create  precond 
[OGL LOG] solve : 20514 ms
BJompGKOCG:  Solving for p, Initial residual = 0.307491, Final residual = 9.88212e-05, No Iterations 281
linear solve p 21302481
time step continuity errors : sum local = 4.11013e-08, global = 1.17017e-20, cumulative = 1.77455e-20
ExecutionTime = 668.17 s  ClockTime = 670 s

End

