/*---------------------------------------------------------------------------*\
  =========                 |
  \\      /  F ield         | OpenFOAM: The Open Source CFD Toolbox
   \\    /   O peration     | Website:  https://openfoam.org
    \\  /    A nd           | Version:  8
     \\/     M anipulation  |
\*---------------------------------------------------------------------------*/
Build  : 8-ef60d22ea792
Exec   : icoFoam
Date   : Jul 29 2021
Time   : 07:38:46
Host   : "nla-gpu2.ianm.kit.edu"
PID    : 1958778
I/O    : uncollated
Case   : /home/greole/code/OBR/lidDrivenCavity3D/Variation_mesh/65/Variation_matrix_solver/CG_NoPrecond_HIP/base
nProcs : 1
sigFpe : Enabling floating point exception trapping (FOAM_SIGFPE).
fileModificationChecking : Monitoring run-time modified files using timeStampMaster (fileModificationSkew 10)
allowSystemOperations : Allowing user-supplied system call operations

// * * * * * * * * * * * * * * * * * * * * * * * * * * * * * * * * * * * * * //
Create time

Create mesh for time = 0

Reading transportProperties

Reading field p

Reading field U

Reading/calculating face flux field phi


Starting time loop

Time = 0.001

Courant Number mean: 0 max: 0
DILUPBiCGStab:  Solving for Ux, Initial residual = 1, Final residual = 0.0009093, No Iterations 5
DILUPBiCGStab:  Solving for Uy:  solution singularity
DILUPBiCGStab:  Solving for Uz:  solution singularity
linear solve U 111558
[OGL LOG] init_host_sparsity_pattern : 123 ms
[OGL LOG] matrix not stored update host matrix
[OGL LOG] update_host_mtx : 60 ms
[OGL LOG] matrix is not yet sorted, compute sorting idxs
[OGL LOG] compute_sort : 2583 ms
[OGL LOG] matrix is not yet sorted, sorting host matrix
[OGL LOG] sort_host_mtx_sparsity_pattern : 51 ms
[OGL LOG] sort_host_mtx : 33 ms
[OGL LOG] init_preconditioner : 0 ms
[OGL LOG] solve : 182 ms
nonehipGKOCG:  Solving for p, Initial residual = 1, Final residual = 9.42357e-05, No Iterations 509
linear solve p 3483077
time step continuity errors : sum local = 5.53653e-08, global = 1.02545e-20, cumulative = 1.02545e-20
[OGL LOG] init_host_sparsity_pattern : 114 ms
[OGL LOG] matrix not stored update host matrix
[OGL LOG] update_host_mtx : 65 ms
[OGL LOG] matrix is not yet sorted, sorting host matrix
[OGL LOG] sort_host_mtx_sparsity_pattern : 51 ms
[OGL LOG] sort_host_mtx : 30 ms
[OGL LOG] init_preconditioner : 0 ms
[OGL LOG] solve : 156 ms
nonehipGKOCG:  Solving for p, Initial residual = 0.710529, Final residual = 9.94745e-05, No Iterations 502
linear solve p 430199
time step continuity errors : sum local = 7.86904e-08, global = 3.48822e-21, cumulative = 1.37427e-20
ExecutionTime = 5.62 s  ClockTime = 6 s

Time = 0.002

Courant Number mean: 0.036459 max: 0.470838
DILUPBiCGStab:  Solving for Ux, Initial residual = 0.154387, Final residual = 0.000271567, No Iterations 5
DILUPBiCGStab:  Solving for Uy, Initial residual = 0.350436, Final residual = 0.000506098, No Iterations 5
DILUPBiCGStab:  Solving for Uz, Initial residual = 0.982773, Final residual = 0.0017687, No Iterations 5
linear solve U 228989
[OGL LOG] init_host_sparsity_pattern : 114 ms
[OGL LOG] matrix not stored update host matrix
[OGL LOG] update_host_mtx : 57 ms
[OGL LOG] matrix is not yet sorted, sorting host matrix
[OGL LOG] sort_host_mtx_sparsity_pattern : 51 ms
[OGL LOG] sort_host_mtx : 31 ms
[OGL LOG] init_preconditioner : 0 ms
[OGL LOG] solve : 156 ms
nonehipGKOCG:  Solving for p, Initial residual = 0.645966, Final residual = 9.31888e-05, No Iterations 499
linear solve p 424492
time step continuity errors : sum local = 7.80866e-08, global = 3.68014e-21, cumulative = 1.74228e-20
[OGL LOG] init_host_sparsity_pattern : 113 ms
[OGL LOG] matrix not stored update host matrix
[OGL LOG] update_host_mtx : 65 ms
[OGL LOG] matrix is not yet sorted, sorting host matrix
[OGL LOG] sort_host_mtx_sparsity_pattern : 51 ms
[OGL LOG] sort_host_mtx : 30 ms
[OGL LOG] init_preconditioner : 0 ms
[OGL LOG] solve : 152 ms
nonehipGKOCG:  Solving for p, Initial residual = 0.569399, Final residual = 9.8839e-05, No Iterations 497
linear solve p 426694
time step continuity errors : sum local = 8.48511e-08, global = -1.04637e-20, cumulative = 6.95915e-21
ExecutionTime = 7.04 s  ClockTime = 7 s

Time = 0.003

Courant Number mean: 0.0547095 max: 0.564536
DILUPBiCGStab:  Solving for Ux, Initial residual = 0.050613, Final residual = 5.48088e-05, No Iterations 5
DILUPBiCGStab:  Solving for Uy, Initial residual = 0.109592, Final residual = 0.000120717, No Iterations 5
DILUPBiCGStab:  Solving for Uz, Initial residual = 0.389112, Final residual = 0.000649717, No Iterations 5
linear solve U 211337
[OGL LOG] init_host_sparsity_pattern : 113 ms
[OGL LOG] matrix not stored update host matrix
[OGL LOG] update_host_mtx : 65 ms
[OGL LOG] matrix is not yet sorted, sorting host matrix
[OGL LOG] sort_host_mtx_sparsity_pattern : 51 ms
[OGL LOG] sort_host_mtx : 31 ms
[OGL LOG] init_preconditioner : 0 ms
[OGL LOG] solve : 155 ms
nonehipGKOCG:  Solving for p, Initial residual = 0.547717, Final residual = 9.32983e-05, No Iterations 495
linear solve p 429307
time step continuity errors : sum local = 5.46389e-08, global = 9.75467e-21, cumulative = 1.67138e-20
[OGL LOG] init_host_sparsity_pattern : 113 ms
[OGL LOG] matrix not stored update host matrix
[OGL LOG] update_host_mtx : 63 ms
[OGL LOG] matrix is not yet sorted, sorting host matrix
[OGL LOG] sort_host_mtx_sparsity_pattern : 54 ms
[OGL LOG] sort_host_mtx : 31 ms
[OGL LOG] init_preconditioner : 0 ms
[OGL LOG] solve : 158 ms
nonehipGKOCG:  Solving for p, Initial residual = 0.491465, Final residual = 9.20458e-05, No Iterations 494
linear solve p 438696
time step continuity errors : sum local = 5.23716e-08, global = -1.36537e-20, cumulative = 3.06012e-21
ExecutionTime = 8.46 s  ClockTime = 8 s

Time = 0.004

Courant Number mean: 0.0645905 max: 0.579605
DILUPBiCGStab:  Solving for Ux, Initial residual = 0.0290686, Final residual = 3.32268e-05, No Iterations 5
DILUPBiCGStab:  Solving for Uy, Initial residual = 0.0718691, Final residual = 5.55056e-05, No Iterations 5
DILUPBiCGStab:  Solving for Uz, Initial residual = 0.208761, Final residual = 0.000261438, No Iterations 5
linear solve U 213408
[OGL LOG] init_host_sparsity_pattern : 113 ms
[OGL LOG] matrix not stored update host matrix
[OGL LOG] update_host_mtx : 65 ms
[OGL LOG] matrix is not yet sorted, sorting host matrix
[OGL LOG] sort_host_mtx_sparsity_pattern : 51 ms
[OGL LOG] sort_host_mtx : 30 ms
[OGL LOG] init_preconditioner : 0 ms
[OGL LOG] solve : 150 ms
nonehipGKOCG:  Solving for p, Initial residual = 0.31668, Final residual = 9.37344e-05, No Iterations 484
linear solve p 427200
time step continuity errors : sum local = 4.8759e-08, global = -1.21424e-20, cumulative = -9.08233e-21
[OGL LOG] init_host_sparsity_pattern : 115 ms
[OGL LOG] matrix not stored update host matrix
[OGL LOG] update_host_mtx : 65 ms
[OGL LOG] matrix is not yet sorted, sorting host matrix
[OGL LOG] sort_host_mtx_sparsity_pattern : 51 ms
[OGL LOG] sort_host_mtx : 31 ms
[OGL LOG] init_preconditioner : 0 ms
[OGL LOG] solve : 153 ms
nonehipGKOCG:  Solving for p, Initial residual = 0.261918, Final residual = 9.89947e-05, No Iterations 480
linear solve p 430305
time step continuity errors : sum local = 5.21242e-08, global = -7.38618e-21, cumulative = -1.64685e-20
ExecutionTime = 9.88 s  ClockTime = 9 s

Time = 0.005

Courant Number mean: 0.0722267 max: 0.589261
DILUPBiCGStab:  Solving for Ux, Initial residual = 0.0206402, Final residual = 1.4658e-05, No Iterations 5
DILUPBiCGStab:  Solving for Uy, Initial residual = 0.04455, Final residual = 3.50822e-05, No Iterations 5
DILUPBiCGStab:  Solving for Uz, Initial residual = 0.0745626, Final residual = 7.55498e-05, No Iterations 5
linear solve U 213354
[OGL LOG] init_host_sparsity_pattern : 113 ms
[OGL LOG] matrix not stored update host matrix
[OGL LOG] update_host_mtx : 63 ms
[OGL LOG] matrix is not yet sorted, sorting host matrix
[OGL LOG] sort_host_mtx_sparsity_pattern : 51 ms
[OGL LOG] sort_host_mtx : 30 ms
[OGL LOG] init_preconditioner : 0 ms
[OGL LOG] solve : 142 ms
nonehipGKOCG:  Solving for p, Initial residual = 0.213995, Final residual = 9.92302e-05, No Iterations 461
linear solve p 416631
time step continuity errors : sum local = 4.52035e-08, global = 1.00821e-20, cumulative = -6.38636e-21
[OGL LOG] init_host_sparsity_pattern : 116 ms
[OGL LOG] matrix not stored update host matrix
[OGL LOG] update_host_mtx : 58 ms
[OGL LOG] matrix is not yet sorted, sorting host matrix
[OGL LOG] sort_host_mtx_sparsity_pattern : 51 ms
[OGL LOG] sort_host_mtx : 31 ms
[OGL LOG] init_preconditioner : 0 ms
[OGL LOG] solve : 144 ms
nonehipGKOCG:  Solving for p, Initial residual = 0.179762, Final residual = 9.56343e-05, No Iterations 461
linear solve p 414209
time step continuity errors : sum local = 4.33126e-08, global = -1.3305e-20, cumulative = -1.96914e-20
ExecutionTime = 11.26 s  ClockTime = 10 s

Time = 0.006

Courant Number mean: 0.0781056 max: 0.595023
DILUPBiCGStab:  Solving for Ux, Initial residual = 0.0153438, Final residual = 1.31843e-05, No Iterations 5
DILUPBiCGStab:  Solving for Uy, Initial residual = 0.0341657, Final residual = 1.47467e-05, No Iterations 5
DILUPBiCGStab:  Solving for Uz, Initial residual = 0.0671453, Final residual = 6.50311e-05, No Iterations 5
linear solve U 213033
[OGL LOG] init_host_sparsity_pattern : 113 ms
[OGL LOG] matrix not stored update host matrix
[OGL LOG] update_host_mtx : 63 ms
[OGL LOG] matrix is not yet sorted, sorting host matrix
[OGL LOG] sort_host_mtx_sparsity_pattern : 51 ms
[OGL LOG] sort_host_mtx : 30 ms
[OGL LOG] init_preconditioner : 0 ms
[OGL LOG] solve : 70 ms
nonehipGKOCG:  Solving for p, Initial residual = 0.126579, Final residual = 9.66748e-05, No Iterations 223
linear solve p 342672
time step continuity errors : sum local = 5.16099e-08, global = 5.71256e-21, cumulative = -1.39788e-20
[OGL LOG] init_host_sparsity_pattern : 116 ms
[OGL LOG] matrix not stored update host matrix
[OGL LOG] update_host_mtx : 60 ms
[OGL LOG] matrix is not yet sorted, sorting host matrix
[OGL LOG] sort_host_mtx_sparsity_pattern : 52 ms
[OGL LOG] sort_host_mtx : 31 ms
[OGL LOG] init_preconditioner : 0 ms
[OGL LOG] solve : 70 ms
nonehipGKOCG:  Solving for p, Initial residual = 0.103661, Final residual = 9.74783e-05, No Iterations 217
linear solve p 346585
time step continuity errors : sum local = 4.62022e-08, global = -5.50836e-21, cumulative = -1.94872e-20
ExecutionTime = 12.38 s  ClockTime = 11 s

Time = 0.007

Courant Number mean: 0.0829416 max: 0.598973
DILUPBiCGStab:  Solving for Ux, Initial residual = 0.0121948, Final residual = 5.65147e-06, No Iterations 5
DILUPBiCGStab:  Solving for Uy, Initial residual = 0.0270209, Final residual = 1.49269e-05, No Iterations 5
DILUPBiCGStab:  Solving for Uz, Initial residual = 0.0486836, Final residual = 4.09657e-05, No Iterations 5
linear solve U 213197
[OGL LOG] init_host_sparsity_pattern : 113 ms
[OGL LOG] matrix not stored update host matrix
[OGL LOG] update_host_mtx : 65 ms
[OGL LOG] matrix is not yet sorted, sorting host matrix
[OGL LOG] sort_host_mtx_sparsity_pattern : 51 ms
[OGL LOG] sort_host_mtx : 31 ms
[OGL LOG] init_preconditioner : 0 ms
[OGL LOG] solve : 68 ms
nonehipGKOCG:  Solving for p, Initial residual = 0.0845259, Final residual = 9.77297e-05, No Iterations 212
linear solve p 343003
time step continuity errors : sum local = 4.30042e-08, global = -2.80003e-21, cumulative = -2.22872e-20
[OGL LOG] init_host_sparsity_pattern : 116 ms
[OGL LOG] matrix not stored update host matrix
[OGL LOG] update_host_mtx : 65 ms
[OGL LOG] matrix is not yet sorted, sorting host matrix
[OGL LOG] sort_host_mtx_sparsity_pattern : 52 ms
[OGL LOG] sort_host_mtx : 39 ms
[OGL LOG] init_preconditioner : 0 ms
[OGL LOG] solve : 66 ms
nonehipGKOCG:  Solving for p, Initial residual = 0.0699965, Final residual = 9.65135e-05, No Iterations 210
linear solve p 353353
time step continuity errors : sum local = 4.24068e-08, global = 5.59393e-21, cumulative = -1.66933e-20
ExecutionTime = 13.52 s  ClockTime = 12 s

Time = 0.008

Courant Number mean: 0.0869902 max: 0.601971
DILUPBiCGStab:  Solving for Ux, Initial residual = 0.0100251, Final residual = 4.75452e-06, No Iterations 5
DILUPBiCGStab:  Solving for Uy, Initial residual = 0.0221927, Final residual = 6.29447e-06, No Iterations 5
DILUPBiCGStab:  Solving for Uz, Initial residual = 0.0417604, Final residual = 2.72285e-05, No Iterations 5
linear solve U 220696
[OGL LOG] init_host_sparsity_pattern : 115 ms
[OGL LOG] matrix not stored update host matrix
[OGL LOG] update_host_mtx : 60 ms
[OGL LOG] matrix is not yet sorted, sorting host matrix
[OGL LOG] sort_host_mtx_sparsity_pattern : 51 ms
[OGL LOG] sort_host_mtx : 31 ms
[OGL LOG] init_preconditioner : 0 ms
[OGL LOG] solve : 64 ms
nonehipGKOCG:  Solving for p, Initial residual = 0.0542255, Final residual = 9.97627e-05, No Iterations 216
linear solve p 335671
time step continuity errors : sum local = 5.10508e-08, global = 6.62396e-21, cumulative = -1.00693e-20
[OGL LOG] init_host_sparsity_pattern : 117 ms
[OGL LOG] matrix not stored update host matrix
[OGL LOG] update_host_mtx : 65 ms
[OGL LOG] matrix is not yet sorted, sorting host matrix
[OGL LOG] sort_host_mtx_sparsity_pattern : 52 ms
[OGL LOG] sort_host_mtx : 31 ms
[OGL LOG] init_preconditioner : 0 ms
[OGL LOG] solve : 66 ms
nonehipGKOCG:  Solving for p, Initial residual = 0.0450378, Final residual = 9.72632e-05, No Iterations 206
linear solve p 348912
time step continuity errors : sum local = 4.4885e-08, global = 1.15201e-20, cumulative = 1.45083e-21
ExecutionTime = 14.64 s  ClockTime = 13 s

Time = 0.009

Courant Number mean: 0.0904653 max: 0.604263
DILUPBiCGStab:  Solving for Ux, Initial residual = 0.00840354, Final residual = 2.59092e-06, No Iterations 5
DILUPBiCGStab:  Solving for Uy, Initial residual = 0.018805, Final residual = 6.39746e-06, No Iterations 5
DILUPBiCGStab:  Solving for Uz, Initial residual = 0.0358025, Final residual = 2.15489e-05, No Iterations 5
linear solve U 217270
[OGL LOG] init_host_sparsity_pattern : 114 ms
[OGL LOG] matrix not stored update host matrix
[OGL LOG] update_host_mtx : 64 ms
[OGL LOG] matrix is not yet sorted, sorting host matrix
[OGL LOG] sort_host_mtx_sparsity_pattern : 53 ms
[OGL LOG] sort_host_mtx : 31 ms
[OGL LOG] init_preconditioner : 0 ms
[OGL LOG] solve : 62 ms
nonehipGKOCG:  Solving for p, Initial residual = 0.038628, Final residual = 9.94595e-05, No Iterations 205
linear solve p 339187
time step continuity errors : sum local = 4.32943e-08, global = -3.12938e-20, cumulative = -2.9843e-20
[OGL LOG] init_host_sparsity_pattern : 116 ms
[OGL LOG] matrix not stored update host matrix
[OGL LOG] update_host_mtx : 62 ms
[OGL LOG] matrix is not yet sorted, sorting host matrix
[OGL LOG] sort_host_mtx_sparsity_pattern : 53 ms
[OGL LOG] sort_host_mtx : 31 ms
[OGL LOG] init_preconditioner : 0 ms
[OGL LOG] solve : 62 ms
nonehipGKOCG:  Solving for p, Initial residual = 0.0326021, Final residual = 9.87694e-05, No Iterations 202
linear solve p 342384
time step continuity errors : sum local = 4.27103e-08, global = 2.32866e-21, cumulative = -2.75143e-20
ExecutionTime = 15.76 s  ClockTime = 15 s

Time = 0.01

Courant Number mean: 0.0934677 max: 0.606123
DILUPBiCGStab:  Solving for Ux, Initial residual = 0.00720791, Final residual = 2.0685e-06, No Iterations 5
DILUPBiCGStab:  Solving for Uy, Initial residual = 0.0161009, Final residual = 2.54541e-06, No Iterations 5
DILUPBiCGStab:  Solving for Uz, Initial residual = 0.0311992, Final residual = 1.54906e-05, No Iterations 5
linear solve U 214271
[OGL LOG] init_host_sparsity_pattern : 113 ms
[OGL LOG] matrix not stored update host matrix
[OGL LOG] update_host_mtx : 57 ms
[OGL LOG] matrix is not yet sorted, sorting host matrix
[OGL LOG] sort_host_mtx_sparsity_pattern : 51 ms
[OGL LOG] sort_host_mtx : 31 ms
[OGL LOG] init_preconditioner : 0 ms
[OGL LOG] solve : 139 ms
nonehipGKOCG:  Solving for p, Initial residual = 0.027192, Final residual = 9.99548e-05, No Iterations 442
linear solve p 405851
time step continuity errors : sum local = 4.24173e-08, global = -4.14866e-21, cumulative = -3.1663e-20
[OGL LOG] init_host_sparsity_pattern : 116 ms
[OGL LOG] matrix not stored update host matrix
[OGL LOG] update_host_mtx : 65 ms
[OGL LOG] matrix is not yet sorted, sorting host matrix
[OGL LOG] sort_host_mtx_sparsity_pattern : 55 ms
[OGL LOG] sort_host_mtx : 31 ms
[OGL LOG] init_preconditioner : 0 ms
[OGL LOG] solve : 67 ms
nonehipGKOCG:  Solving for p, Initial residual = 0.0233851, Final residual = 9.83948e-05, No Iterations 206
linear solve p 350661
time step continuity errors : sum local = 4.94355e-08, global = -2.46986e-20, cumulative = -5.63616e-20
ExecutionTime = 17 s  ClockTime = 16 s

End

