/*---------------------------------------------------------------------------*\
  =========                 |
  \\      /  F ield         | OpenFOAM: The Open Source CFD Toolbox
   \\    /   O peration     | Website:  https://openfoam.org
    \\  /    A nd           | Version:  8
     \\/     M anipulation  |
\*---------------------------------------------------------------------------*/
Build  : 8-40a5a48f630f
Exec   : icoFoam
Date   : Jul 28 2021
Time   : 12:37:02
Host   : "uc2n449.localdomain"
PID    : 1425645
I/O    : uncollated
Case   : /pfs/data5/home/kit/scc/nq7776/code/OBR/lidDrivenCavity3D/Variation_mesh/65/Variation_matrix_solver/BiCGStab_NoPrecond_OMP/base
nProcs : 1
sigFpe : Enabling floating point exception trapping (FOAM_SIGFPE).
fileModificationChecking : Monitoring run-time modified files using timeStampMaster (fileModificationSkew 10)
allowSystemOperations : Allowing user-supplied system call operations

// * * * * * * * * * * * * * * * * * * * * * * * * * * * * * * * * * * * * * //
Create time

Create mesh for time = 0

Reading transportProperties

Reading field p

Reading field U

Reading/calculating face flux field phi


Starting time loop

Time = 0.001

Courant Number mean: 0 max: 0
nonePBiCGStab:  Solving for Ux, Initial residual = 1, Final residual = 0.053017, No Iterations 5
nonePBiCGStab:  Solving for Uy, Initial residual = 0, Final residual = 0, No Iterations 0
nonePBiCGStab:  Solving for Uz, Initial residual = 0, Final residual = 0, No Iterations 0
linear solve U 69
[OGL LOG] init_host_sparsity_pattern : 78 ms
[OGL LOG] matrix not stored update host matrix
[OGL LOG] update_host_mtx : 40 ms
[OGL LOG] matrix is not yet sorted, compute sorting idxs
[OGL LOG] compute_sort : 2374 ms
[OGL LOG] matrix is not yet sorted, sorting host matrix
[OGL LOG] sort_host_mtx_sparsity_pattern : 56 ms
[OGL LOG] sort_host_mtx : 32 ms
[OGL LOG] init_preconditioner : 0 ms
[OGL LOG] solve : 2371 ms
noneompGKOBiCGStab:  Solving for p, Initial residual = 1, Final residual = 9.23015e-05, No Iterations 415
linear solve p 5048
time step continuity errors : sum local = 1.1238e-06, global = -1.26e-21, cumulative = -1.26e-21
[OGL LOG] init_host_sparsity_pattern : 75 ms
[OGL LOG] matrix not stored update host matrix
[OGL LOG] update_host_mtx : 40 ms
[OGL LOG] matrix is not yet sorted, sorting host matrix
[OGL LOG] sort_host_mtx_sparsity_pattern : 61 ms
[OGL LOG] sort_host_mtx : 27 ms
[OGL LOG] init_preconditioner : 0 ms
[OGL LOG] solve : 2235 ms
noneompGKOBiCGStab:  Solving for p, Initial residual = 0.674833, Final residual = 9.44574e-05, No Iterations 405
linear solve p 2488
time step continuity errors : sum local = 5.19831e-07, global = 2.21047e-21, cumulative = 9.50469e-22
ExecutionTime = 187.31 s  ClockTime = 9 s

Time = 0.002

Courant Number mean: 0.0326852 max: 0.468251
nonePBiCGStab:  Solving for Ux, Initial residual = 0.152073, Final residual = 0.0211836, No Iterations 5
nonePBiCGStab:  Solving for Uy, Initial residual = 0.364785, Final residual = 0.046454, No Iterations 5
nonePBiCGStab:  Solving for Uz, Initial residual = 0.96852, Final residual = 0.161387, No Iterations 5
linear solve U 135
[OGL LOG] init_host_sparsity_pattern : 73 ms
[OGL LOG] matrix not stored update host matrix
[OGL LOG] update_host_mtx : 38 ms
[OGL LOG] matrix is not yet sorted, sorting host matrix
[OGL LOG] sort_host_mtx_sparsity_pattern : 56 ms
[OGL LOG] sort_host_mtx : 27 ms
[OGL LOG] init_preconditioner : 0 ms
[OGL LOG] solve : 2279 ms
noneompGKOBiCGStab:  Solving for p, Initial residual = 0.655868, Final residual = 6.1433e-05, No Iterations 388
linear solve p 2514
time step continuity errors : sum local = 9.04032e-06, global = 2.914e-22, cumulative = 1.24187e-21
[OGL LOG] init_host_sparsity_pattern : 72 ms
[OGL LOG] matrix not stored update host matrix
[OGL LOG] update_host_mtx : 35 ms
[OGL LOG] matrix is not yet sorted, sorting host matrix
[OGL LOG] sort_host_mtx_sparsity_pattern : 57 ms
[OGL LOG] sort_host_mtx : 27 ms
[OGL LOG] init_preconditioner : 0 ms
[OGL LOG] solve : 2250 ms
noneompGKOBiCGStab:  Solving for p, Initial residual = 0.576609, Final residual = 9.47795e-05, No Iterations 381
linear solve p 2481
time step continuity errors : sum local = 8.14497e-07, global = -2.05618e-20, cumulative = -1.93199e-20
ExecutionTime = 369.49 s  ClockTime = 15 s

Time = 0.003

Courant Number mean: 0.050229 max: 0.556583
nonePBiCGStab:  Solving for Ux, Initial residual = 0.0550574, Final residual = 0.00620977, No Iterations 5
nonePBiCGStab:  Solving for Uy, Initial residual = 0.127578, Final residual = 0.0183814, No Iterations 5
nonePBiCGStab:  Solving for Uz, Initial residual = 0.431981, Final residual = 0.0839532, No Iterations 5
linear solve U 136
[OGL LOG] init_host_sparsity_pattern : 72 ms
[OGL LOG] matrix not stored update host matrix
[OGL LOG] update_host_mtx : 38 ms
[OGL LOG] matrix is not yet sorted, sorting host matrix
[OGL LOG] sort_host_mtx_sparsity_pattern : 56 ms
[OGL LOG] sort_host_mtx : 27 ms
[OGL LOG] init_preconditioner : 0 ms
[OGL LOG] solve : 1914 ms
noneompGKOBiCGStab:  Solving for p, Initial residual = 0.562215, Final residual = 4.7672e-05, No Iterations 326
linear solve p 2148
time step continuity errors : sum local = 1.32096e-06, global = -2.928e-21, cumulative = -2.22479e-20
[OGL LOG] init_host_sparsity_pattern : 73 ms
[OGL LOG] matrix not stored update host matrix
[OGL LOG] update_host_mtx : 40 ms
[OGL LOG] matrix is not yet sorted, sorting host matrix
[OGL LOG] sort_host_mtx_sparsity_pattern : 56 ms
[OGL LOG] sort_host_mtx : 27 ms
[OGL LOG] init_preconditioner : 0 ms
[OGL LOG] solve : 2028 ms
noneompGKOBiCGStab:  Solving for p, Initial residual = 0.495924, Final residual = 9.8007e-05, No Iterations 340
linear solve p 2264
time step continuity errors : sum local = 1.62726e-06, global = 7.44327e-21, cumulative = -1.48047e-20
ExecutionTime = 528.17 s  ClockTime = 19 s

Time = 0.004

Courant Number mean: 0.060233 max: 0.574946
nonePBiCGStab:  Solving for Ux, Initial residual = 0.0337637, Final residual = 0.0033186, No Iterations 5
nonePBiCGStab:  Solving for Uy, Initial residual = 0.0813498, Final residual = 0.00869587, No Iterations 5
nonePBiCGStab:  Solving for Uz, Initial residual = 0.277845, Final residual = 0.0459021, No Iterations 5
linear solve U 134
[OGL LOG] init_host_sparsity_pattern : 72 ms
[OGL LOG] matrix not stored update host matrix
[OGL LOG] update_host_mtx : 41 ms
[OGL LOG] matrix is not yet sorted, sorting host matrix
[OGL LOG] sort_host_mtx_sparsity_pattern : 57 ms
[OGL LOG] sort_host_mtx : 27 ms
[OGL LOG] init_preconditioner : 0 ms
[OGL LOG] solve : 2119 ms
noneompGKOBiCGStab:  Solving for p, Initial residual = 0.364975, Final residual = 7.38642e-05, No Iterations 358
linear solve p 2353
time step continuity errors : sum local = 5.17136e-06, global = -2.85789e-21, cumulative = -1.76625e-20
[OGL LOG] init_host_sparsity_pattern : 72 ms
[OGL LOG] matrix not stored update host matrix
[OGL LOG] update_host_mtx : 38 ms
[OGL LOG] matrix is not yet sorted, sorting host matrix
[OGL LOG] sort_host_mtx_sparsity_pattern : 56 ms
[OGL LOG] sort_host_mtx : 27 ms
[OGL LOG] init_preconditioner : 0 ms
[OGL LOG] solve : 2128 ms
noneompGKOBiCGStab:  Solving for p, Initial residual = 0.30692, Final residual = 7.69445e-05, No Iterations 359
linear solve p 2360
time step continuity errors : sum local = 7.65117e-08, global = 4.18451e-21, cumulative = -1.3478e-20
ExecutionTime = 698.99 s  ClockTime = 24 s

Time = 0.005

Courant Number mean: 0.0681879 max: 0.58558
nonePBiCGStab:  Solving for Ux, Initial residual = 0.0237121, Final residual = 0.0022776, No Iterations 5
nonePBiCGStab:  Solving for Uy, Initial residual = 0.0547015, Final residual = 0.00534776, No Iterations 5
nonePBiCGStab:  Solving for Uz, Initial residual = 0.168334, Final residual = 0.0370422, No Iterations 5
linear solve U 137
[OGL LOG] init_host_sparsity_pattern : 72 ms
[OGL LOG] matrix not stored update host matrix
[OGL LOG] update_host_mtx : 40 ms
[OGL LOG] matrix is not yet sorted, sorting host matrix
[OGL LOG] sort_host_mtx_sparsity_pattern : 56 ms
[OGL LOG] sort_host_mtx : 27 ms
[OGL LOG] init_preconditioner : 0 ms
[OGL LOG] solve : 1785 ms
noneompGKOBiCGStab:  Solving for p, Initial residual = 0.300147, Final residual = 5.56501e-05, No Iterations 301
linear solve p 2020
time step continuity errors : sum local = 2.15809e-06, global = 1.39305e-20, cumulative = 4.52481e-22
[OGL LOG] init_host_sparsity_pattern : 75 ms
[OGL LOG] matrix not stored update host matrix
[OGL LOG] update_host_mtx : 40 ms
[OGL LOG] matrix is not yet sorted, sorting host matrix
[OGL LOG] sort_host_mtx_sparsity_pattern : 55 ms
[OGL LOG] sort_host_mtx : 27 ms
[OGL LOG] init_preconditioner : 0 ms
[OGL LOG] solve : 1830 ms
noneompGKOBiCGStab:  Solving for p, Initial residual = 0.257164, Final residual = 9.80936e-05, No Iterations 308
linear solve p 2070
time step continuity errors : sum local = 2.30821e-07, global = -1.74221e-20, cumulative = -1.69696e-20
ExecutionTime = 844.66 s  ClockTime = 29 s

Time = 0.006

Courant Number mean: 0.0744148 max: 0.592116
nonePBiCGStab:  Solving for Ux, Initial residual = 0.0183148, Final residual = 0.00168327, No Iterations 5
nonePBiCGStab:  Solving for Uy, Initial residual = 0.0404481, Final residual = 0.00318375, No Iterations 5
nonePBiCGStab:  Solving for Uz, Initial residual = 0.149429, Final residual = 0.033741, No Iterations 5
linear solve U 135
[OGL LOG] init_host_sparsity_pattern : 73 ms
[OGL LOG] matrix not stored update host matrix
[OGL LOG] update_host_mtx : 41 ms
[OGL LOG] matrix is not yet sorted, sorting host matrix
[OGL LOG] sort_host_mtx_sparsity_pattern : 56 ms
[OGL LOG] sort_host_mtx : 27 ms
[OGL LOG] init_preconditioner : 0 ms
[OGL LOG] solve : 2206 ms
noneompGKOBiCGStab:  Solving for p, Initial residual = 0.224684, Final residual = 8.51005e-05, No Iterations 373
linear solve p 2439
time step continuity errors : sum local = 9.84013e-08, global = 2.53644e-20, cumulative = 8.39475e-21
[OGL LOG] init_host_sparsity_pattern : 72 ms
[OGL LOG] matrix not stored update host matrix
[OGL LOG] update_host_mtx : 38 ms
[OGL LOG] matrix is not yet sorted, sorting host matrix
[OGL LOG] sort_host_mtx_sparsity_pattern : 55 ms
[OGL LOG] sort_host_mtx : 27 ms
[OGL LOG] init_preconditioner : 0 ms
[OGL LOG] solve : 1988 ms
noneompGKOBiCGStab:  Solving for p, Initial residual = 0.186875, Final residual = 7.64553e-05, No Iterations 335
linear solve p 2218
time step continuity errors : sum local = 2.8054e-05, global = 1.11558e-20, cumulative = 1.95505e-20
ExecutionTime = 1013.37 s  ClockTime = 34 s

Time = 0.007

Courant Number mean: 0.0796033 max: 0.596619
nonePBiCGStab:  Solving for Ux, Initial residual = 0.0146112, Final residual = 0.00137971, No Iterations 5
nonePBiCGStab:  Solving for Uy, Initial residual = 0.0328197, Final residual = 0.00351141, No Iterations 5
nonePBiCGStab:  Solving for Uz, Initial residual = 0.110316, Final residual = 0.0316056, No Iterations 5
linear solve U 137
[OGL LOG] init_host_sparsity_pattern : 72 ms
[OGL LOG] matrix not stored update host matrix
[OGL LOG] update_host_mtx : 41 ms
[OGL LOG] matrix is not yet sorted, sorting host matrix
[OGL LOG] sort_host_mtx_sparsity_pattern : 56 ms
[OGL LOG] sort_host_mtx : 27 ms
[OGL LOG] init_preconditioner : 0 ms
[OGL LOG] solve : 2031 ms
noneompGKOBiCGStab:  Solving for p, Initial residual = 0.244607, Final residual = 8.68324e-05, No Iterations 343
linear solve p 2264
time step continuity errors : sum local = 9.73999e-08, global = -2.52149e-20, cumulative = -5.66442e-21
[OGL LOG] init_host_sparsity_pattern : 72 ms
[OGL LOG] matrix not stored update host matrix
[OGL LOG] update_host_mtx : 40 ms
[OGL LOG] matrix is not yet sorted, sorting host matrix
[OGL LOG] sort_host_mtx_sparsity_pattern : 57 ms
[OGL LOG] sort_host_mtx : 27 ms
[OGL LOG] init_preconditioner : 0 ms
[OGL LOG] solve : 1882 ms
noneompGKOBiCGStab:  Solving for p, Initial residual = 0.185947, Final residual = 9.81468e-05, No Iterations 317
linear solve p 2117
time step continuity errors : sum local = 7.36873e-07, global = 1.0942e-20, cumulative = 5.27757e-21
ExecutionTime = 1170.9 s  ClockTime = 38 s

Time = 0.008

Courant Number mean: 0.0838742 max: 0.59997
nonePBiCGStab:  Solving for Ux, Initial residual = 0.0117619, Final residual = 0.00101661, No Iterations 5
nonePBiCGStab:  Solving for Uy, Initial residual = 0.0270563, Final residual = 0.00225983, No Iterations 5
nonePBiCGStab:  Solving for Uz, Initial residual = 0.100668, Final residual = 0.0263456, No Iterations 5
linear solve U 134
[OGL LOG] init_host_sparsity_pattern : 72 ms
[OGL LOG] matrix not stored update host matrix
[OGL LOG] update_host_mtx : 40 ms
[OGL LOG] matrix is not yet sorted, sorting host matrix
[OGL LOG] sort_host_mtx_sparsity_pattern : 56 ms
[OGL LOG] sort_host_mtx : 27 ms
[OGL LOG] init_preconditioner : 0 ms
[OGL LOG] solve : 1831 ms
noneompGKOBiCGStab:  Solving for p, Initial residual = 0.181691, Final residual = 9.9304e-05, No Iterations 310
linear solve p 2063
time step continuity errors : sum local = 1.25051e-06, global = -1.90617e-21, cumulative = 3.3714e-21
[OGL LOG] init_host_sparsity_pattern : 73 ms
[OGL LOG] matrix not stored update host matrix
[OGL LOG] update_host_mtx : 39 ms
[OGL LOG] matrix is not yet sorted, sorting host matrix
[OGL LOG] sort_host_mtx_sparsity_pattern : 56 ms
[OGL LOG] sort_host_mtx : 27 ms
[OGL LOG] init_preconditioner : 0 ms
[OGL LOG] solve : 1941 ms
noneompGKOBiCGStab:  Solving for p, Initial residual = 0.151438, Final residual = 9.9883e-05, No Iterations 328
linear solve p 2175
time step continuity errors : sum local = 6.07955e-08, global = 1.16629e-20, cumulative = 1.50343e-20
ExecutionTime = 1322.8 s  ClockTime = 43 s

Time = 0.009

Courant Number mean: 0.0875824 max: 0.602534
nonePBiCGStab:  Solving for Ux, Initial residual = 0.0100064, Final residual = 0.000689309, No Iterations 5
nonePBiCGStab:  Solving for Uy, Initial residual = 0.0224929, Final residual = 0.00151246, No Iterations 5
nonePBiCGStab:  Solving for Uz, Initial residual = 0.0791625, Final residual = 0.0138041, No Iterations 5
linear solve U 137
[OGL LOG] init_host_sparsity_pattern : 72 ms
[OGL LOG] matrix not stored update host matrix
[OGL LOG] update_host_mtx : 40 ms
[OGL LOG] matrix is not yet sorted, sorting host matrix
[OGL LOG] sort_host_mtx_sparsity_pattern : 56 ms
[OGL LOG] sort_host_mtx : 27 ms
[OGL LOG] init_preconditioner : 0 ms
[OGL LOG] solve : 1813 ms
noneompGKOBiCGStab:  Solving for p, Initial residual = 0.151952, Final residual = 9.91803e-05, No Iterations 307
linear solve p 2046
time step continuity errors : sum local = 2.87571e-07, global = 6.35469e-22, cumulative = 1.56698e-20
[OGL LOG] init_host_sparsity_pattern : 74 ms
[OGL LOG] matrix not stored update host matrix
[OGL LOG] update_host_mtx : 40 ms
[OGL LOG] matrix is not yet sorted, sorting host matrix
[OGL LOG] sort_host_mtx_sparsity_pattern : 57 ms
[OGL LOG] sort_host_mtx : 27 ms
[OGL LOG] init_preconditioner : 0 ms
[OGL LOG] solve : 2196 ms
noneompGKOBiCGStab:  Solving for p, Initial residual = 0.124737, Final residual = 9.82207e-05, No Iterations 369
linear solve p 2433
time step continuity errors : sum local = 6.08937e-08, global = 5.8635e-21, cumulative = 2.15333e-20
ExecutionTime = 1484.1 s  ClockTime = 48 s

Time = 0.01

Courant Number mean: 0.0908411 max: 0.604691
nonePBiCGStab:  Solving for Ux, Initial residual = 0.00835727, Final residual = 0.000465491, No Iterations 5
nonePBiCGStab:  Solving for Uy, Initial residual = 0.019203, Final residual = 0.000923556, No Iterations 5
nonePBiCGStab:  Solving for Uz, Initial residual = 0.0647729, Final residual = 0.0108613, No Iterations 5
linear solve U 134
[OGL LOG] init_host_sparsity_pattern : 72 ms
[OGL LOG] matrix not stored update host matrix
[OGL LOG] update_host_mtx : 41 ms
[OGL LOG] matrix is not yet sorted, sorting host matrix
[OGL LOG] sort_host_mtx_sparsity_pattern : 55 ms
[OGL LOG] sort_host_mtx : 27 ms
[OGL LOG] init_preconditioner : 0 ms
[OGL LOG] solve : 2112 ms
noneompGKOBiCGStab:  Solving for p, Initial residual = 0.117527, Final residual = 9.27359e-05, No Iterations 356
linear solve p 2345
time step continuity errors : sum local = 7.82568e-07, global = 3.32974e-21, cumulative = 2.4863e-20
[OGL LOG] init_host_sparsity_pattern : 72 ms
[OGL LOG] matrix not stored update host matrix
[OGL LOG] update_host_mtx : 38 ms
[OGL LOG] matrix is not yet sorted, sorting host matrix
[OGL LOG] sort_host_mtx_sparsity_pattern : 56 ms
[OGL LOG] sort_host_mtx : 27 ms
[OGL LOG] init_preconditioner : 0 ms
[OGL LOG] solve : 1658 ms
noneompGKOBiCGStab:  Solving for p, Initial residual = 0.0969936, Final residual = 6.15353e-05, No Iterations 319
linear solve p 1891
time step continuity errors : sum local = 4.12503e-08, global = -3.46256e-21, cumulative = 2.14004e-20
ExecutionTime = 1635.89 s  ClockTime = 52 s

End

