/*---------------------------------------------------------------------------*\
  =========                 |
  \\      /  F ield         | OpenFOAM: The Open Source CFD Toolbox
   \\    /   O peration     | Website:  https://openfoam.org
    \\  /    A nd           | Version:  8
     \\/     M anipulation  |
\*---------------------------------------------------------------------------*/
Build  : 8-40a5a48f630f
Exec   : icoFoam
Date   : Jul 28 2021
Time   : 12:32:05
Host   : "uc2n374.localdomain"
PID    : 2726691
I/O    : uncollated
Case   : /pfs/data5/home/kit/scc/nq7776/code/OBR/lidDrivenCavity3D/Variation_mesh/40/Variation_matrix_solver/BiCGStab_BJ_OMP/base
nProcs : 1
sigFpe : Enabling floating point exception trapping (FOAM_SIGFPE).
fileModificationChecking : Monitoring run-time modified files using timeStampMaster (fileModificationSkew 10)
allowSystemOperations : Allowing user-supplied system call operations

// * * * * * * * * * * * * * * * * * * * * * * * * * * * * * * * * * * * * * //
Create time

Create mesh for time = 0

Reading transportProperties

Reading field p

Reading field U

Reading/calculating face flux field phi


Starting time loop

Time = 0.001

Courant Number mean: 0 max: 0
nonePBiCGStab:  Solving for Ux, Initial residual = 1, Final residual = 0.0197517, No Iterations 5
nonePBiCGStab:  Solving for Uy, Initial residual = 0, Final residual = 0, No Iterations 0
nonePBiCGStab:  Solving for Uz, Initial residual = 0, Final residual = 0, No Iterations 0
linear solve U 14
[OGL LOG] init_host_sparsity_pattern : 18 ms
[OGL LOG] matrix not stored update host matrix
[OGL LOG] update_host_mtx : 9 ms
[OGL LOG] matrix is not yet sorted, compute sorting idxs
[OGL LOG] compute_sort : 488 ms
[OGL LOG] matrix is not yet sorted, sorting host matrix
[OGL LOG] sort_host_mtx_sparsity_pattern : 13 ms
[OGL LOG] sort_host_mtx : 7 ms
[OGL LOG] init_preconditioner : 2 ms
[OGL LOG] solve : 381 ms
BJompGKOBiCGStab:  Solving for p, Initial residual = 1, Final residual = 8.62669e-05, No Iterations 202
linear solve p 946
time step continuity errors : sum local = 9.67901e-07, global = -2.386e-20, cumulative = -2.386e-20
[OGL LOG] init_host_sparsity_pattern : 18 ms
[OGL LOG] matrix not stored update host matrix
[OGL LOG] update_host_mtx : 9 ms
[OGL LOG] matrix is not yet sorted, sorting host matrix
[OGL LOG] sort_host_mtx_sparsity_pattern : 13 ms
[OGL LOG] sort_host_mtx : 6 ms
[OGL LOG] init_preconditioner : 0 ms
[OGL LOG] solve : 391 ms
BJompGKOBiCGStab:  Solving for p, Initial residual = 0.599016, Final residual = 2.40855e-05, No Iterations 207
linear solve p 448
time step continuity errors : sum local = 1.88933e-06, global = 4.90218e-21, cumulative = -1.89578e-20
ExecutionTime = 26.36 s  ClockTime = 2 s

Time = 0.002

Courant Number mean: 0.0210278 max: 0.237017
nonePBiCGStab:  Solving for Ux, Initial residual = 0.177936, Final residual = 0.0067353, No Iterations 5
nonePBiCGStab:  Solving for Uy, Initial residual = 0.294077, Final residual = 0.00802087, No Iterations 5
nonePBiCGStab:  Solving for Uz, Initial residual = 0.931807, Final residual = 0.0361463, No Iterations 5
linear solve U 28
[OGL LOG] init_host_sparsity_pattern : 17 ms
[OGL LOG] matrix not stored update host matrix
[OGL LOG] update_host_mtx : 9 ms
[OGL LOG] matrix is not yet sorted, sorting host matrix
[OGL LOG] sort_host_mtx_sparsity_pattern : 13 ms
[OGL LOG] sort_host_mtx : 6 ms
[OGL LOG] init_preconditioner : 0 ms
[OGL LOG] solve : 355 ms
BJompGKOBiCGStab:  Solving for p, Initial residual = 0.459227, Final residual = 9.10406e-05, No Iterations 182
linear solve p 412
time step continuity errors : sum local = 1.3198e-06, global = 1.89936e-20, cumulative = 3.57756e-23
[OGL LOG] init_host_sparsity_pattern : 18 ms
[OGL LOG] matrix not stored update host matrix
[OGL LOG] update_host_mtx : 9 ms
[OGL LOG] matrix is not yet sorted, sorting host matrix
[OGL LOG] sort_host_mtx_sparsity_pattern : 13 ms
[OGL LOG] sort_host_mtx : 6 ms
[OGL LOG] init_preconditioner : 0 ms
[OGL LOG] solve : 334 ms
BJompGKOBiCGStab:  Solving for p, Initial residual = 0.362177, Final residual = 9.97162e-05, No Iterations 177
linear solve p 392
time step continuity errors : sum local = 4.22387e-07, global = -2.16449e-20, cumulative = -2.16091e-20
ExecutionTime = 48.96 s  ClockTime = 3 s

Time = 0.003

Courant Number mean: 0.032101 max: 0.305902
nonePBiCGStab:  Solving for Ux, Initial residual = 0.0655751, Final residual = 0.00126892, No Iterations 5
nonePBiCGStab:  Solving for Uy, Initial residual = 0.108433, Final residual = 0.00204553, No Iterations 5
nonePBiCGStab:  Solving for Uz, Initial residual = 0.227669, Final residual = 0.0110148, No Iterations 5
linear solve U 28
[OGL LOG] init_host_sparsity_pattern : 17 ms
[OGL LOG] matrix not stored update host matrix
[OGL LOG] update_host_mtx : 9 ms
[OGL LOG] matrix is not yet sorted, sorting host matrix
[OGL LOG] sort_host_mtx_sparsity_pattern : 13 ms
[OGL LOG] sort_host_mtx : 6 ms
[OGL LOG] init_preconditioner : 0 ms
[OGL LOG] solve : 387 ms
BJompGKOBiCGStab:  Solving for p, Initial residual = 0.166259, Final residual = 6.34661e-05, No Iterations 205
linear solve p 443
time step continuity errors : sum local = 1.92527e-06, global = -2.27299e-20, cumulative = -4.4339e-20
[OGL LOG] init_host_sparsity_pattern : 18 ms
[OGL LOG] matrix not stored update host matrix
[OGL LOG] update_host_mtx : 9 ms
[OGL LOG] matrix is not yet sorted, sorting host matrix
[OGL LOG] sort_host_mtx_sparsity_pattern : 13 ms
[OGL LOG] sort_host_mtx : 6 ms
[OGL LOG] init_preconditioner : 0 ms
[OGL LOG] solve : 144 ms
BJompGKOBiCGStab:  Solving for p, Initial residual = 0.131859, Final residual = 9.90383e-05, No Iterations 76
linear solve p 200
time step continuity errors : sum local = 1.17825e-07, global = 4.05014e-21, cumulative = -4.02889e-20
ExecutionTime = 66.53 s  ClockTime = 4 s

Time = 0.004

Courant Number mean: 0.0386714 max: 0.327548
nonePBiCGStab:  Solving for Ux, Initial residual = 0.0389414, Final residual = 0.000884006, No Iterations 5
nonePBiCGStab:  Solving for Uy, Initial residual = 0.0670662, Final residual = 0.000780947, No Iterations 5
nonePBiCGStab:  Solving for Uz, Initial residual = 0.141446, Final residual = 0.00602052, No Iterations 5
linear solve U 28
[OGL LOG] init_host_sparsity_pattern : 17 ms
[OGL LOG] matrix not stored update host matrix
[OGL LOG] update_host_mtx : 9 ms
[OGL LOG] matrix is not yet sorted, sorting host matrix
[OGL LOG] sort_host_mtx_sparsity_pattern : 13 ms
[OGL LOG] sort_host_mtx : 6 ms
[OGL LOG] init_preconditioner : 0 ms
[OGL LOG] solve : 313 ms
BJompGKOBiCGStab:  Solving for p, Initial residual = 0.0878567, Final residual = 8.86254e-05, No Iterations 166
linear solve p 369
time step continuity errors : sum local = 6.72466e-08, global = -1.68884e-20, cumulative = -5.71773e-20
[OGL LOG] init_host_sparsity_pattern : 17 ms
[OGL LOG] matrix not stored update host matrix
[OGL LOG] update_host_mtx : 9 ms
[OGL LOG] matrix is not yet sorted, sorting host matrix
[OGL LOG] sort_host_mtx_sparsity_pattern : 13 ms
[OGL LOG] sort_host_mtx : 6 ms
[OGL LOG] init_preconditioner : 0 ms
[OGL LOG] solve : 298 ms
BJompGKOBiCGStab:  Solving for p, Initial residual = 0.0675412, Final residual = 9.5452e-05, No Iterations 152
linear solve p 354
time step continuity errors : sum local = 1.30383e-07, global = 1.25223e-20, cumulative = -4.4655e-20
ExecutionTime = 86.67 s  ClockTime = 5 s

Time = 0.005

Courant Number mean: 0.0434737 max: 0.337859
nonePBiCGStab:  Solving for Ux, Initial residual = 0.0269845, Final residual = 0.000356974, No Iterations 5
nonePBiCGStab:  Solving for Uy, Initial residual = 0.0466948, Final residual = 0.000397993, No Iterations 5
nonePBiCGStab:  Solving for Uz, Initial residual = 0.090713, Final residual = 0.0020429, No Iterations 5
linear solve U 28
[OGL LOG] init_host_sparsity_pattern : 17 ms
[OGL LOG] matrix not stored update host matrix
[OGL LOG] update_host_mtx : 9 ms
[OGL LOG] matrix is not yet sorted, sorting host matrix
[OGL LOG] sort_host_mtx_sparsity_pattern : 13 ms
[OGL LOG] sort_host_mtx : 6 ms
[OGL LOG] init_preconditioner : 0 ms
[OGL LOG] solve : 336 ms
BJompGKOBiCGStab:  Solving for p, Initial residual = 0.0449681, Final residual = 7.37564e-05, No Iterations 178
linear solve p 393
time step continuity errors : sum local = 1.6595e-06, global = -7.83503e-21, cumulative = -5.249e-20
[OGL LOG] init_host_sparsity_pattern : 18 ms
[OGL LOG] matrix not stored update host matrix
[OGL LOG] update_host_mtx : 9 ms
[OGL LOG] matrix is not yet sorted, sorting host matrix
[OGL LOG] sort_host_mtx_sparsity_pattern : 13 ms
[OGL LOG] sort_host_mtx : 6 ms
[OGL LOG] init_preconditioner : 0 ms
[OGL LOG] solve : 333 ms
BJompGKOBiCGStab:  Solving for p, Initial residual = 0.0383121, Final residual = 8.57404e-05, No Iterations 176
linear solve p 389
time step continuity errors : sum local = 1.21735e-06, global = -1.69496e-21, cumulative = -5.4185e-20
ExecutionTime = 108.63 s  ClockTime = 5 s

Time = 0.006

Courant Number mean: 0.0471934 max: 0.344028
nonePBiCGStab:  Solving for Ux, Initial residual = 0.0203988, Final residual = 0.00028366, No Iterations 5
nonePBiCGStab:  Solving for Uy, Initial residual = 0.0359689, Final residual = 0.000432955, No Iterations 5
nonePBiCGStab:  Solving for Uz, Initial residual = 0.0809295, Final residual = 0.00291529, No Iterations 5
linear solve U 27
[OGL LOG] init_host_sparsity_pattern : 17 ms
[OGL LOG] matrix not stored update host matrix
[OGL LOG] update_host_mtx : 9 ms
[OGL LOG] matrix is not yet sorted, sorting host matrix
[OGL LOG] sort_host_mtx_sparsity_pattern : 13 ms
[OGL LOG] sort_host_mtx : 6 ms
[OGL LOG] init_preconditioner : 0 ms
[OGL LOG] solve : 309 ms
BJompGKOBiCGStab:  Solving for p, Initial residual = 0.0326358, Final residual = 9.99422e-05, No Iterations 164
linear solve p 365
time step continuity errors : sum local = 8.14296e-08, global = 4.51635e-21, cumulative = -4.96686e-20
[OGL LOG] init_host_sparsity_pattern : 18 ms
[OGL LOG] matrix not stored update host matrix
[OGL LOG] update_host_mtx : 9 ms
[OGL LOG] matrix is not yet sorted, sorting host matrix
[OGL LOG] sort_host_mtx_sparsity_pattern : 13 ms
[OGL LOG] sort_host_mtx : 6 ms
[OGL LOG] init_preconditioner : 0 ms
[OGL LOG] solve : 306 ms
BJompGKOBiCGStab:  Solving for p, Initial residual = 0.0253715, Final residual = 9.47564e-05, No Iterations 163
linear solve p 363
time step continuity errors : sum local = 1.13827e-07, global = -1.46907e-20, cumulative = -6.43593e-20
ExecutionTime = 128.91 s  ClockTime = 6 s

Time = 0.007

Courant Number mean: 0.0502252 max: 0.348251
nonePBiCGStab:  Solving for Ux, Initial residual = 0.0163927, Final residual = 0.000184321, No Iterations 5
nonePBiCGStab:  Solving for Uy, Initial residual = 0.0284458, Final residual = 0.000272348, No Iterations 5
nonePBiCGStab:  Solving for Uz, Initial residual = 0.0614292, Final residual = 0.00178046, No Iterations 5
linear solve U 28
[OGL LOG] init_host_sparsity_pattern : 17 ms
[OGL LOG] matrix not stored update host matrix
[OGL LOG] update_host_mtx : 9 ms
[OGL LOG] matrix is not yet sorted, sorting host matrix
[OGL LOG] sort_host_mtx_sparsity_pattern : 13 ms
[OGL LOG] sort_host_mtx : 6 ms
[OGL LOG] init_preconditioner : 0 ms
[OGL LOG] solve : 319 ms
BJompGKOBiCGStab:  Solving for p, Initial residual = 0.0238615, Final residual = 8.76871e-05, No Iterations 169
linear solve p 375
time step continuity errors : sum local = 1.03847e-07, global = 3.06519e-20, cumulative = -3.37074e-20
[OGL LOG] init_host_sparsity_pattern : 18 ms
[OGL LOG] matrix not stored update host matrix
[OGL LOG] update_host_mtx : 9 ms
[OGL LOG] matrix is not yet sorted, sorting host matrix
[OGL LOG] sort_host_mtx_sparsity_pattern : 13 ms
[OGL LOG] sort_host_mtx : 6 ms
[OGL LOG] init_preconditioner : 0 ms
[OGL LOG] solve : 323 ms
BJompGKOBiCGStab:  Solving for p, Initial residual = 0.0198952, Final residual = 5.37025e-05, No Iterations 172
linear solve p 380
time step continuity errors : sum local = 3.89101e-08, global = 7.42423e-21, cumulative = -2.62832e-20
ExecutionTime = 150.04 s  ClockTime = 7 s

Time = 0.008

Courant Number mean: 0.052793 max: 0.351362
nonePBiCGStab:  Solving for Ux, Initial residual = 0.0133686, Final residual = 9.6789e-05, No Iterations 5
nonePBiCGStab:  Solving for Uy, Initial residual = 0.0235964, Final residual = 0.000137265, No Iterations 5
nonePBiCGStab:  Solving for Uz, Initial residual = 0.0474314, Final residual = 0.000872018, No Iterations 5
linear solve U 28
[OGL LOG] init_host_sparsity_pattern : 17 ms
[OGL LOG] matrix not stored update host matrix
[OGL LOG] update_host_mtx : 9 ms
[OGL LOG] matrix is not yet sorted, sorting host matrix
[OGL LOG] sort_host_mtx_sparsity_pattern : 13 ms
[OGL LOG] sort_host_mtx : 6 ms
[OGL LOG] init_preconditioner : 0 ms
[OGL LOG] solve : 124 ms
BJompGKOBiCGStab:  Solving for p, Initial residual = 0.0185414, Final residual = 8.59466e-05, No Iterations 65
linear solve p 180
time step continuity errors : sum local = 1.12082e-07, global = 7.4067e-21, cumulative = -1.88765e-20
[OGL LOG] init_host_sparsity_pattern : 18 ms
[OGL LOG] matrix not stored update host matrix
[OGL LOG] update_host_mtx : 9 ms
[OGL LOG] matrix is not yet sorted, sorting host matrix
[OGL LOG] sort_host_mtx_sparsity_pattern : 13 ms
[OGL LOG] sort_host_mtx : 6 ms
[OGL LOG] init_preconditioner : 0 ms
[OGL LOG] solve : 118 ms
BJompGKOBiCGStab:  Solving for p, Initial residual = 0.0154741, Final residual = 7.96169e-05, No Iterations 62
linear solve p 175
time step continuity errors : sum local = 8.68642e-08, global = 7.78938e-21, cumulative = -1.10871e-20
ExecutionTime = 158.4 s  ClockTime = 7 s

Time = 0.009

Courant Number mean: 0.0549798 max: 0.353779
nonePBiCGStab:  Solving for Ux, Initial residual = 0.0111617, Final residual = 7.25592e-05, No Iterations 5
nonePBiCGStab:  Solving for Uy, Initial residual = 0.0199744, Final residual = 8.72562e-05, No Iterations 5
nonePBiCGStab:  Solving for Uz, Initial residual = 0.0389851, Final residual = 0.000370155, No Iterations 5
linear solve U 28
[OGL LOG] init_host_sparsity_pattern : 18 ms
[OGL LOG] matrix not stored update host matrix
[OGL LOG] update_host_mtx : 9 ms
[OGL LOG] matrix is not yet sorted, sorting host matrix
[OGL LOG] sort_host_mtx_sparsity_pattern : 13 ms
[OGL LOG] sort_host_mtx : 6 ms
[OGL LOG] init_preconditioner : 0 ms
[OGL LOG] solve : 124 ms
BJompGKOBiCGStab:  Solving for p, Initial residual = 0.015916, Final residual = 7.94656e-05, No Iterations 66
linear solve p 181
time step continuity errors : sum local = 5.57272e-08, global = -1.60135e-20, cumulative = -2.71006e-20
[OGL LOG] init_host_sparsity_pattern : 17 ms
[OGL LOG] matrix not stored update host matrix
[OGL LOG] update_host_mtx : 9 ms
[OGL LOG] matrix is not yet sorted, sorting host matrix
[OGL LOG] sort_host_mtx_sparsity_pattern : 12 ms
[OGL LOG] sort_host_mtx : 6 ms
[OGL LOG] init_preconditioner : 0 ms
[OGL LOG] solve : 109 ms
BJompGKOBiCGStab:  Solving for p, Initial residual = 0.0134655, Final residual = 7.82037e-05, No Iterations 57
linear solve p 165
time step continuity errors : sum local = 8.07741e-08, global = -2.2511e-20, cumulative = -4.96116e-20
ExecutionTime = 166.47 s  ClockTime = 8 s

Time = 0.01

Courant Number mean: 0.0568621 max: 0.355702
nonePBiCGStab:  Solving for Ux, Initial residual = 0.00953019, Final residual = 5.36828e-05, No Iterations 5
nonePBiCGStab:  Solving for Uy, Initial residual = 0.0171427, Final residual = 6.65687e-05, No Iterations 5
nonePBiCGStab:  Solving for Uz, Initial residual = 0.0331481, Final residual = 0.000317699, No Iterations 5
linear solve U 28
[OGL LOG] init_host_sparsity_pattern : 18 ms
[OGL LOG] matrix not stored update host matrix
[OGL LOG] update_host_mtx : 9 ms
[OGL LOG] matrix is not yet sorted, sorting host matrix
[OGL LOG] sort_host_mtx_sparsity_pattern : 13 ms
[OGL LOG] sort_host_mtx : 6 ms
[OGL LOG] init_preconditioner : 0 ms
[OGL LOG] solve : 120 ms
BJompGKOBiCGStab:  Solving for p, Initial residual = 0.0132212, Final residual = 7.44358e-05, No Iterations 63
linear solve p 176
time step continuity errors : sum local = 1.19636e-07, global = -2.91318e-20, cumulative = -7.87434e-20
[OGL LOG] init_host_sparsity_pattern : 17 ms
[OGL LOG] matrix not stored update host matrix
[OGL LOG] update_host_mtx : 9 ms
[OGL LOG] matrix is not yet sorted, sorting host matrix
[OGL LOG] sort_host_mtx_sparsity_pattern : 13 ms
[OGL LOG] sort_host_mtx : 6 ms
[OGL LOG] init_preconditioner : 0 ms
[OGL LOG] solve : 110 ms
BJompGKOBiCGStab:  Solving for p, Initial residual = 0.0113015, Final residual = 8.84281e-05, No Iterations 58
linear solve p 166
time step continuity errors : sum local = 8.05812e-08, global = -1.89788e-20, cumulative = -9.77222e-20
ExecutionTime = 174.43 s  ClockTime = 8 s

End

