/*---------------------------------------------------------------------------*\
  =========                 |
  \\      /  F ield         | OpenFOAM: The Open Source CFD Toolbox
   \\    /   O peration     | Website:  https://openfoam.org
    \\  /    A nd           | Version:  8
     \\/     M anipulation  |
\*---------------------------------------------------------------------------*/
Build  : 8-14d69e1ee166
Exec   : icoFoam
Date   : Jul 29 2021
Time   : 08:06:22
Host   : "guyot.icl.utk.edu"
PID    : 86769
I/O    : uncollated
Case   : /home/greole/code/OBR/lidDrivenCavity3D/Variation_mesh/40/Variation_matrix_solver/IR_NoPrecond_CUDA/base
nProcs : 1
sigFpe : Enabling floating point exception trapping (FOAM_SIGFPE).
fileModificationChecking : Monitoring run-time modified files using timeStampMaster (fileModificationSkew 10)
allowSystemOperations : Allowing user-supplied system call operations

// * * * * * * * * * * * * * * * * * * * * * * * * * * * * * * * * * * * * * //
Create time

Create mesh for time = 0

Reading transportProperties

Reading field p

Reading field U

Reading/calculating face flux field phi


Starting time loop

Time = 0.001

Courant Number mean: 0 max: 0
DILUPBiCGStab:  Solving for Ux, Initial residual = 1, Final residual = 1.19415e-05, No Iterations 5
DILUPBiCGStab:  Solving for Uy:  solution singularity
DILUPBiCGStab:  Solving for Uz:  solution singularity
linear solve U 23214
[OGL LOG] init_host_sparsity_pattern : 28 ms
[OGL LOG] matrix not stored update host matrix
[OGL LOG] update_host_mtx : 14 ms
[OGL LOG] matrix is not yet sorted, compute sorting idxs
[OGL LOG] compute_sort : 565 ms
[OGL LOG] matrix is not yet sorted, sorting host matrix
[OGL LOG] sort_host_mtx_sparsity_pattern : 11 ms
[OGL LOG] sort_host_mtx : 7 ms
[OGL LOG] init_preconditioner : 0 ms
[OGL LOG] solve : 66 ms
nonecudaGKOIR:  Solving for p, Initial residual = 1, Final residual = 8.95803e-06, No Iterations 3
linear solve p 2355837
time step continuity errors : sum local = 5.14956e-09, global = -1.00569e-21, cumulative = -1.00569e-21
[OGL LOG] init_host_sparsity_pattern : 26 ms
[OGL LOG] matrix not stored update host matrix
[OGL LOG] update_host_mtx : 14 ms
[OGL LOG] matrix is not yet sorted, sorting host matrix
[OGL LOG] sort_host_mtx_sparsity_pattern : 11 ms
[OGL LOG] sort_host_mtx : 6 ms
[OGL LOG] init_preconditioner : 0 ms
[OGL LOG] solve : 69 ms
nonecudaGKOIR:  Solving for p, Initial residual = 0.607463, Final residual = 3.49421e-06, No Iterations 3
linear solve p 134516
time step continuity errors : sum local = 2.92127e-09, global = -5.6745e-21, cumulative = -6.68019e-21
ExecutionTime = 2.82 s  ClockTime = 3 s

Time = 0.002

Courant Number mean: 0.0213818 max: 0.237104
DILUPBiCGStab:  Solving for Ux, Initial residual = 0.179109, Final residual = 2.29028e-06, No Iterations 5
DILUPBiCGStab:  Solving for Uy, Initial residual = 0.29084, Final residual = 3.23159e-06, No Iterations 5
DILUPBiCGStab:  Solving for Uz, Initial residual = 0.958354, Final residual = 1.2531e-05, No Iterations 5
linear solve U 44593
[OGL LOG] init_host_sparsity_pattern : 25 ms
[OGL LOG] matrix not stored update host matrix
[OGL LOG] update_host_mtx : 13 ms
[OGL LOG] matrix is not yet sorted, sorting host matrix
[OGL LOG] sort_host_mtx_sparsity_pattern : 11 ms
[OGL LOG] sort_host_mtx : 6 ms
[OGL LOG] init_preconditioner : 0 ms
[OGL LOG] solve : 68 ms
nonecudaGKOIR:  Solving for p, Initial residual = 0.459146, Final residual = 1.47823e-06, No Iterations 3
linear solve p 131759
time step continuity errors : sum local = 1.17898e-09, global = 1.42906e-20, cumulative = 7.6104e-21
[OGL LOG] init_host_sparsity_pattern : 25 ms
[OGL LOG] matrix not stored update host matrix
[OGL LOG] update_host_mtx : 13 ms
[OGL LOG] matrix is not yet sorted, sorting host matrix
[OGL LOG] sort_host_mtx_sparsity_pattern : 11 ms
[OGL LOG] sort_host_mtx : 6 ms
[OGL LOG] init_preconditioner : 0 ms
[OGL LOG] solve : 68 ms
nonecudaGKOIR:  Solving for p, Initial residual = 0.363692, Final residual = 1.21069e-06, No Iterations 3
linear solve p 130868
time step continuity errors : sum local = 1.00456e-09, global = -1.03656e-20, cumulative = -2.75521e-21
ExecutionTime = 3.15 s  ClockTime = 3 s

Time = 0.003

Courant Number mean: 0.032521 max: 0.306671
DILUPBiCGStab:  Solving for Ux, Initial residual = 0.0649075, Final residual = 7.63599e-07, No Iterations 5
DILUPBiCGStab:  Solving for Uy, Initial residual = 0.105098, Final residual = 6.05257e-07, No Iterations 5
DILUPBiCGStab:  Solving for Uz, Initial residual = 0.144732, Final residual = 1.65114e-06, No Iterations 5
linear solve U 44759
[OGL LOG] init_host_sparsity_pattern : 25 ms
[OGL LOG] matrix not stored update host matrix
[OGL LOG] update_host_mtx : 13 ms
[OGL LOG] matrix is not yet sorted, sorting host matrix
[OGL LOG] sort_host_mtx_sparsity_pattern : 11 ms
[OGL LOG] sort_host_mtx : 6 ms
[OGL LOG] init_preconditioner : 0 ms
[OGL LOG] solve : 52 ms
nonecudaGKOIR:  Solving for p, Initial residual = 0.164436, Final residual = 4.23819e-05, No Iterations 2
linear solve p 115694
time step continuity errors : sum local = 2.72625e-08, global = 1.09404e-20, cumulative = 8.18522e-21
[OGL LOG] init_host_sparsity_pattern : 25 ms
[OGL LOG] matrix not stored update host matrix
[OGL LOG] update_host_mtx : 13 ms
[OGL LOG] matrix is not yet sorted, sorting host matrix
[OGL LOG] sort_host_mtx_sparsity_pattern : 11 ms
[OGL LOG] sort_host_mtx : 6 ms
[OGL LOG] init_preconditioner : 0 ms
[OGL LOG] solve : 53 ms
nonecudaGKOIR:  Solving for p, Initial residual = 0.129697, Final residual = 3.17722e-05, No Iterations 2
linear solve p 115609
time step continuity errors : sum local = 2.03757e-08, global = 2.39434e-21, cumulative = 1.05796e-20
ExecutionTime = 3.45 s  ClockTime = 3 s

Time = 0.004

Courant Number mean: 0.0391011 max: 0.328163
DILUPBiCGStab:  Solving for Ux, Initial residual = 0.0380631, Final residual = 2.89173e-07, No Iterations 5
DILUPBiCGStab:  Solving for Uy, Initial residual = 0.0656651, Final residual = 3.02499e-07, No Iterations 5
DILUPBiCGStab:  Solving for Uz, Initial residual = 0.105705, Final residual = 6.7472e-07, No Iterations 5
linear solve U 45112
[OGL LOG] init_host_sparsity_pattern : 25 ms
[OGL LOG] matrix not stored update host matrix
[OGL LOG] update_host_mtx : 13 ms
[OGL LOG] matrix is not yet sorted, sorting host matrix
[OGL LOG] sort_host_mtx_sparsity_pattern : 11 ms
[OGL LOG] sort_host_mtx : 6 ms
[OGL LOG] init_preconditioner : 0 ms
[OGL LOG] solve : 54 ms
nonecudaGKOIR:  Solving for p, Initial residual = 0.0833904, Final residual = 2.17047e-05, No Iterations 2
linear solve p 117358
time step continuity errors : sum local = 1.34793e-08, global = 4.10753e-21, cumulative = 1.46871e-20
[OGL LOG] init_host_sparsity_pattern : 25 ms
[OGL LOG] matrix not stored update host matrix
[OGL LOG] update_host_mtx : 13 ms
[OGL LOG] matrix is not yet sorted, sorting host matrix
[OGL LOG] sort_host_mtx_sparsity_pattern : 11 ms
[OGL LOG] sort_host_mtx : 6 ms
[OGL LOG] init_preconditioner : 0 ms
[OGL LOG] solve : 52 ms
nonecudaGKOIR:  Solving for p, Initial residual = 0.0649207, Final residual = 1.44084e-05, No Iterations 2
linear solve p 115365
time step continuity errors : sum local = 9.06582e-09, global = -2.1959e-20, cumulative = -7.27191e-21
ExecutionTime = 3.76 s  ClockTime = 4 s

Time = 0.005

Courant Number mean: 0.0438792 max: 0.338387
DILUPBiCGStab:  Solving for Ux, Initial residual = 0.0264331, Final residual = 7.82434e-08, No Iterations 5
DILUPBiCGStab:  Solving for Uy, Initial residual = 0.0455709, Final residual = 1.71039e-07, No Iterations 5
DILUPBiCGStab:  Solving for Uz, Initial residual = 0.0751064, Final residual = 2.92874e-07, No Iterations 5
linear solve U 44574
[OGL LOG] init_host_sparsity_pattern : 25 ms
[OGL LOG] matrix not stored update host matrix
[OGL LOG] update_host_mtx : 13 ms
[OGL LOG] matrix is not yet sorted, sorting host matrix
[OGL LOG] sort_host_mtx_sparsity_pattern : 11 ms
[OGL LOG] sort_host_mtx : 6 ms
[OGL LOG] init_preconditioner : 0 ms
[OGL LOG] solve : 54 ms
nonecudaGKOIR:  Solving for p, Initial residual = 0.0439543, Final residual = 9.44821e-06, No Iterations 2
linear solve p 117522
time step continuity errors : sum local = 5.86674e-09, global = 2.23912e-20, cumulative = 1.51193e-20
[OGL LOG] init_host_sparsity_pattern : 25 ms
[OGL LOG] matrix not stored update host matrix
[OGL LOG] update_host_mtx : 13 ms
[OGL LOG] matrix is not yet sorted, sorting host matrix
[OGL LOG] sort_host_mtx_sparsity_pattern : 11 ms
[OGL LOG] sort_host_mtx : 6 ms
[OGL LOG] init_preconditioner : 0 ms
[OGL LOG] solve : 53 ms
nonecudaGKOIR:  Solving for p, Initial residual = 0.035576, Final residual = 6.00311e-06, No Iterations 2
linear solve p 116031
time step continuity errors : sum local = 3.74266e-09, global = -1.1232e-20, cumulative = 3.88734e-21
ExecutionTime = 4.07 s  ClockTime = 4 s

Time = 0.006

Courant Number mean: 0.0475595 max: 0.344477
DILUPBiCGStab:  Solving for Ux, Initial residual = 0.0200121, Final residual = 3.55023e-08, No Iterations 5
DILUPBiCGStab:  Solving for Uy, Initial residual = 0.0348378, Final residual = 8.01688e-08, No Iterations 5
DILUPBiCGStab:  Solving for Uz, Initial residual = 0.0588571, Final residual = 1.91435e-07, No Iterations 5
linear solve U 45100
[OGL LOG] init_host_sparsity_pattern : 25 ms
[OGL LOG] matrix not stored update host matrix
[OGL LOG] update_host_mtx : 13 ms
[OGL LOG] matrix is not yet sorted, sorting host matrix
[OGL LOG] sort_host_mtx_sparsity_pattern : 11 ms
[OGL LOG] sort_host_mtx : 6 ms
[OGL LOG] init_preconditioner : 0 ms
[OGL LOG] solve : 54 ms
nonecudaGKOIR:  Solving for p, Initial residual = 0.0293472, Final residual = 6.77044e-06, No Iterations 2
linear solve p 117962
time step continuity errors : sum local = 4.21588e-09, global = 1.19143e-20, cumulative = 1.58017e-20
[OGL LOG] init_host_sparsity_pattern : 26 ms
[OGL LOG] matrix not stored update host matrix
[OGL LOG] update_host_mtx : 13 ms
[OGL LOG] matrix is not yet sorted, sorting host matrix
[OGL LOG] sort_host_mtx_sparsity_pattern : 11 ms
[OGL LOG] sort_host_mtx : 6 ms
[OGL LOG] init_preconditioner : 0 ms
[OGL LOG] solve : 54 ms
nonecudaGKOIR:  Solving for p, Initial residual = 0.024067, Final residual = 4.86655e-06, No Iterations 2
linear solve p 117157
time step continuity errors : sum local = 3.04341e-09, global = -7.82748e-21, cumulative = 7.97417e-21
ExecutionTime = 4.39 s  ClockTime = 4 s

Time = 0.007

Courant Number mean: 0.0505737 max: 0.348642
DILUPBiCGStab:  Solving for Ux, Initial residual = 0.0159158, Final residual = 2.12583e-08, No Iterations 5
DILUPBiCGStab:  Solving for Uy, Initial residual = 0.0278715, Final residual = 5.9525e-08, No Iterations 5
DILUPBiCGStab:  Solving for Uz, Initial residual = 0.0484697, Final residual = 1.35424e-07, No Iterations 5
linear solve U 44592
[OGL LOG] init_host_sparsity_pattern : 25 ms
[OGL LOG] matrix not stored update host matrix
[OGL LOG] update_host_mtx : 13 ms
[OGL LOG] matrix is not yet sorted, sorting host matrix
[OGL LOG] sort_host_mtx_sparsity_pattern : 11 ms
[OGL LOG] sort_host_mtx : 6 ms
[OGL LOG] init_preconditioner : 0 ms
[OGL LOG] solve : 56 ms
nonecudaGKOIR:  Solving for p, Initial residual = 0.0227951, Final residual = 4.00923e-06, No Iterations 2
linear solve p 119462
time step continuity errors : sum local = 2.50939e-09, global = -7.10792e-21, cumulative = 8.66254e-22
[OGL LOG] init_host_sparsity_pattern : 25 ms
[OGL LOG] matrix not stored update host matrix
[OGL LOG] update_host_mtx : 13 ms
[OGL LOG] matrix is not yet sorted, sorting host matrix
[OGL LOG] sort_host_mtx_sparsity_pattern : 11 ms
[OGL LOG] sort_host_mtx : 6 ms
[OGL LOG] init_preconditioner : 0 ms
[OGL LOG] solve : 56 ms
nonecudaGKOIR:  Solving for p, Initial residual = 0.0190896, Final residual = 3.48421e-06, No Iterations 2
linear solve p 119095
time step continuity errors : sum local = 2.18657e-09, global = 3.5567e-21, cumulative = 4.42295e-21
ExecutionTime = 4.7 s  ClockTime = 4 s

Time = 0.008

Courant Number mean: 0.053113 max: 0.351705
DILUPBiCGStab:  Solving for Ux, Initial residual = 0.0130731, Final residual = 1.51402e-08, No Iterations 5
DILUPBiCGStab:  Solving for Uy, Initial residual = 0.0230445, Final residual = 3.87451e-08, No Iterations 5
DILUPBiCGStab:  Solving for Uz, Initial residual = 0.0411266, Final residual = 1.11799e-07, No Iterations 5
linear solve U 44964
[OGL LOG] init_host_sparsity_pattern : 25 ms
[OGL LOG] matrix not stored update host matrix
[OGL LOG] update_host_mtx : 13 ms
[OGL LOG] matrix is not yet sorted, sorting host matrix
[OGL LOG] sort_host_mtx_sparsity_pattern : 11 ms
[OGL LOG] sort_host_mtx : 6 ms
[OGL LOG] init_preconditioner : 0 ms
[OGL LOG] solve : 57 ms
nonecudaGKOIR:  Solving for p, Initial residual = 0.0179853, Final residual = 3.63069e-06, No Iterations 2
linear solve p 120828
time step continuity errors : sum local = 2.28122e-09, global = -1.88788e-20, cumulative = -1.44558e-20
[OGL LOG] init_host_sparsity_pattern : 25 ms
[OGL LOG] matrix not stored update host matrix
[OGL LOG] update_host_mtx : 13 ms
[OGL LOG] matrix is not yet sorted, sorting host matrix
[OGL LOG] sort_host_mtx_sparsity_pattern : 11 ms
[OGL LOG] sort_host_mtx : 6 ms
[OGL LOG] init_preconditioner : 0 ms
[OGL LOG] solve : 56 ms
nonecudaGKOIR:  Solving for p, Initial residual = 0.0151966, Final residual = 2.29018e-06, No Iterations 2
linear solve p 119223
time step continuity errors : sum local = 1.4423e-09, global = -3.98031e-20, cumulative = -5.4259e-20
ExecutionTime = 5.01 s  ClockTime = 5 s

Time = 0.009

Courant Number mean: 0.0552704 max: 0.354071
DILUPBiCGStab:  Solving for Ux, Initial residual = 0.0109809, Final residual = 1.1451e-08, No Iterations 5
DILUPBiCGStab:  Solving for Uy, Initial residual = 0.0194794, Final residual = 2.96238e-08, No Iterations 5
DILUPBiCGStab:  Solving for Uz, Initial residual = 0.0355215, Final residual = 9.51238e-08, No Iterations 5
linear solve U 44403
[OGL LOG] init_host_sparsity_pattern : 25 ms
[OGL LOG] matrix not stored update host matrix
[OGL LOG] update_host_mtx : 13 ms
[OGL LOG] matrix is not yet sorted, sorting host matrix
[OGL LOG] sort_host_mtx_sparsity_pattern : 11 ms
[OGL LOG] sort_host_mtx : 6 ms
[OGL LOG] init_preconditioner : 0 ms
[OGL LOG] solve : 56 ms
nonecudaGKOIR:  Solving for p, Initial residual = 0.015094, Final residual = 2.77027e-06, No Iterations 2
linear solve p 119964
time step continuity errors : sum local = 1.74642e-09, global = 1.74622e-20, cumulative = -3.67968e-20
[OGL LOG] init_host_sparsity_pattern : 25 ms
[OGL LOG] matrix not stored update host matrix
[OGL LOG] update_host_mtx : 13 ms
[OGL LOG] matrix is not yet sorted, sorting host matrix
[OGL LOG] sort_host_mtx_sparsity_pattern : 11 ms
[OGL LOG] sort_host_mtx : 6 ms
[OGL LOG] init_preconditioner : 0 ms
[OGL LOG] solve : 56 ms
nonecudaGKOIR:  Solving for p, Initial residual = 0.0128057, Final residual = 1.97841e-06, No Iterations 2
linear solve p 118739
time step continuity errors : sum local = 1.24949e-09, global = 7.30691e-22, cumulative = -3.60661e-20
ExecutionTime = 5.32 s  ClockTime = 5 s

Time = 0.01

Courant Number mean: 0.057126 max: 0.355962
DILUPBiCGStab:  Solving for Ux, Initial residual = 0.00937634, Final residual = 9.20317e-09, No Iterations 5
DILUPBiCGStab:  Solving for Uy, Initial residual = 0.0167464, Final residual = 2.21793e-08, No Iterations 5
DILUPBiCGStab:  Solving for Uz, Initial residual = 0.0310644, Final residual = 8.25675e-08, No Iterations 5
linear solve U 44682
[OGL LOG] init_host_sparsity_pattern : 25 ms
[OGL LOG] matrix not stored update host matrix
[OGL LOG] update_host_mtx : 13 ms
[OGL LOG] matrix is not yet sorted, sorting host matrix
[OGL LOG] sort_host_mtx_sparsity_pattern : 11 ms
[OGL LOG] sort_host_mtx : 6 ms
[OGL LOG] init_preconditioner : 0 ms
[OGL LOG] solve : 57 ms
nonecudaGKOIR:  Solving for p, Initial residual = 0.0128028, Final residual = 2.3359e-06, No Iterations 2
linear solve p 120278
time step continuity errors : sum local = 1.47671e-09, global = -5.49693e-21, cumulative = -4.1563e-20
[OGL LOG] init_host_sparsity_pattern : 25 ms
[OGL LOG] matrix not stored update host matrix
[OGL LOG] update_host_mtx : 13 ms
[OGL LOG] matrix is not yet sorted, sorting host matrix
[OGL LOG] sort_host_mtx_sparsity_pattern : 11 ms
[OGL LOG] sort_host_mtx : 6 ms
[OGL LOG] init_preconditioner : 0 ms
[OGL LOG] solve : 56 ms
nonecudaGKOIR:  Solving for p, Initial residual = 0.0108895, Final residual = 1.73737e-06, No Iterations 2
linear solve p 119121
time step continuity errors : sum local = 1.10005e-09, global = 2.87466e-20, cumulative = -1.28164e-20
ExecutionTime = 5.64 s  ClockTime = 5 s

End

