/*---------------------------------------------------------------------------*\
  =========                 |
  \\      /  F ield         | OpenFOAM: The Open Source CFD Toolbox
   \\    /   O peration     | Website:  https://openfoam.org
    \\  /    A nd           | Version:  8
     \\/     M anipulation  |
\*---------------------------------------------------------------------------*/
Build  : 8-ef60d22ea792
Exec   : icoFoam
Date   : Jul 28 2021
Time   : 17:41:15
Host   : "nla-gpu2.ianm.kit.edu"
PID    : 1567272
I/O    : uncollated
Case   : /home/greole/code/OBR/lidDrivenCavity3D/Variation_mesh/80/Variation_matrix_solver/CG_NoPrecond_Serial/base
nProcs : 1
sigFpe : Enabling floating point exception trapping (FOAM_SIGFPE).
fileModificationChecking : Monitoring run-time modified files using timeStampMaster (fileModificationSkew 10)
allowSystemOperations : Allowing user-supplied system call operations

// * * * * * * * * * * * * * * * * * * * * * * * * * * * * * * * * * * * * * //
Create time

Create mesh for time = 0

Reading transportProperties

Reading field p

Reading field U

Reading/calculating face flux field phi


Starting time loop

Time = 0.001

Courant Number mean: 0 max: 0
DILUPBiCGStab:  Solving for Ux, Initial residual = 1, Final residual = 0.00289442, No Iterations 5
DILUPBiCGStab:  Solving for Uy:  solution singularity
DILUPBiCGStab:  Solving for Uz:  solution singularity
linear solve U 219848
nonePCG:  Solving for p, Initial residual = 1, Final residual = 9.97916e-05, No Iterations 630
linear solve p 3549465
time step continuity errors : sum local = 5.8528e-08, global = 1.65816e-20, cumulative = 1.65816e-20
nonePCG:  Solving for p, Initial residual = 0.745901, Final residual = 9.98262e-05, No Iterations 622
linear solve p 3583678
time step continuity errors : sum local = 7.61807e-08, global = -4.87439e-21, cumulative = 1.17072e-20
ExecutionTime = 9.74 s  ClockTime = 10 s

Time = 0.002

Courant Number mean: 0.0451638 max: 0.613749
DILUPBiCGStab:  Solving for Ux, Initial residual = 0.146312, Final residual = 0.00105952, No Iterations 5
DILUPBiCGStab:  Solving for Uy, Initial residual = 0.385219, Final residual = 0.00246579, No Iterations 5
DILUPBiCGStab:  Solving for Uz, Initial residual = 0.987339, Final residual = 0.0071287, No Iterations 5
linear solve U 408563
nonePCG:  Solving for p, Initial residual = 0.724053, Final residual = 9.8522e-05, No Iterations 619
linear solve p 3494248
time step continuity errors : sum local = 8.89179e-08, global = 4.06674e-21, cumulative = 1.5774e-20
nonePCG:  Solving for p, Initial residual = 0.656901, Final residual = 9.81976e-05, No Iterations 617
linear solve p 3539946
time step continuity errors : sum local = 9.04887e-08, global = -2.30342e-20, cumulative = -7.26018e-21
ExecutionTime = 17.4 s  ClockTime = 18 s

Time = 0.003

Courant Number mean: 0.0679251 max: 0.721702
DILUPBiCGStab:  Solving for Ux, Initial residual = 0.0559034, Final residual = 0.000353232, No Iterations 5
DILUPBiCGStab:  Solving for Uy, Initial residual = 0.144779, Final residual = 0.000951858, No Iterations 5
DILUPBiCGStab:  Solving for Uz, Initial residual = 0.686645, Final residual = 0.00456139, No Iterations 5
linear solve U 406897
nonePCG:  Solving for p, Initial residual = 0.705438, Final residual = 9.83695e-05, No Iterations 372
linear solve p 2099880
time step continuity errors : sum local = 7.96108e-08, global = 8.6293e-21, cumulative = 1.36912e-21
nonePCG:  Solving for p, Initial residual = 0.663718, Final residual = 9.98771e-05, No Iterations 337
linear solve p 1929926
time step continuity errors : sum local = 7.13397e-08, global = -8.82365e-21, cumulative = -7.45453e-21
ExecutionTime = 22.07 s  ClockTime = 22 s

Time = 0.004

Courant Number mean: 0.0793946 max: 0.728868
DILUPBiCGStab:  Solving for Ux, Initial residual = 0.029595, Final residual = 0.000182211, No Iterations 5
DILUPBiCGStab:  Solving for Uy, Initial residual = 0.100119, Final residual = 0.000584243, No Iterations 5
DILUPBiCGStab:  Solving for Uz, Initial residual = 0.391392, Final residual = 0.00215904, No Iterations 5
linear solve U 401198
nonePCG:  Solving for p, Initial residual = 0.527083, Final residual = 9.91975e-05, No Iterations 338
linear solve p 1925541
time step continuity errors : sum local = 6.13041e-08, global = -1.81488e-20, cumulative = -2.56033e-20
nonePCG:  Solving for p, Initial residual = 0.463336, Final residual = 9.89244e-05, No Iterations 333
linear solve p 1933073
time step continuity errors : sum local = 6.0753e-08, global = -1.07789e-20, cumulative = -3.63822e-20
ExecutionTime = 26.55 s  ClockTime = 27 s

Time = 0.005

Courant Number mean: 0.0889341 max: 0.739432
DILUPBiCGStab:  Solving for Ux, Initial residual = 0.0218897, Final residual = 0.000116414, No Iterations 5
DILUPBiCGStab:  Solving for Uy, Initial residual = 0.0522695, Final residual = 0.000204388, No Iterations 5
DILUPBiCGStab:  Solving for Uz, Initial residual = 0.183203, Final residual = 0.00114961, No Iterations 5
linear solve U 404450
nonePCG:  Solving for p, Initial residual = 0.462182, Final residual = 9.98014e-05, No Iterations 603
linear solve p 3402068
time step continuity errors : sum local = 4.69438e-08, global = 1.02883e-20, cumulative = -2.60939e-20
nonePCG:  Solving for p, Initial residual = 0.40961, Final residual = 9.61904e-05, No Iterations 603
linear solve p 3460193
time step continuity errors : sum local = 4.47861e-08, global = 8.17346e-21, cumulative = -1.79204e-20
ExecutionTime = 34.04 s  ClockTime = 34 s

Time = 0.006

Courant Number mean: 0.0960652 max: 0.745158
DILUPBiCGStab:  Solving for Ux, Initial residual = 0.0146607, Final residual = 6.87988e-05, No Iterations 5
DILUPBiCGStab:  Solving for Uy, Initial residual = 0.0417246, Final residual = 0.000169411, No Iterations 5
DILUPBiCGStab:  Solving for Uz, Initial residual = 0.139256, Final residual = 0.000809585, No Iterations 5
linear solve U 406226
nonePCG:  Solving for p, Initial residual = 0.316762, Final residual = 9.66809e-05, No Iterations 289
linear solve p 1633505
time step continuity errors : sum local = 4.76898e-08, global = 5.75473e-21, cumulative = -1.21657e-20
nonePCG:  Solving for p, Initial residual = 0.272166, Final residual = 9.40064e-05, No Iterations 287
linear solve p 1644869
time step continuity errors : sum local = 4.33158e-08, global = -2.35189e-20, cumulative = -3.56846e-20
ExecutionTime = 37.96 s  ClockTime = 38 s

Time = 0.007

Courant Number mean: 0.102039 max: 0.748859
DILUPBiCGStab:  Solving for Ux, Initial residual = 0.0119916, Final residual = 4.82759e-05, No Iterations 5
DILUPBiCGStab:  Solving for Uy, Initial residual = 0.0290035, Final residual = 7.92785e-05, No Iterations 5
DILUPBiCGStab:  Solving for Uz, Initial residual = 0.0730757, Final residual = 0.00038981, No Iterations 5
linear solve U 401323
nonePCG:  Solving for p, Initial residual = 0.254573, Final residual = 9.84772e-05, No Iterations 278
linear solve p 1584562
time step continuity errors : sum local = 4.07005e-08, global = 7.93672e-21, cumulative = -2.77479e-20
nonePCG:  Solving for p, Initial residual = 0.218112, Final residual = 9.63028e-05, No Iterations 276
linear solve p 1603157
time step continuity errors : sum local = 3.88947e-08, global = -1.29465e-20, cumulative = -4.06944e-20
ExecutionTime = 41.77 s  ClockTime = 42 s

Time = 0.008

Courant Number mean: 0.10702 max: 0.752042
DILUPBiCGStab:  Solving for Ux, Initial residual = 0.00935299, Final residual = 3.41181e-05, No Iterations 5
DILUPBiCGStab:  Solving for Uy, Initial residual = 0.024277, Final residual = 6.39825e-05, No Iterations 5
DILUPBiCGStab:  Solving for Uz, Initial residual = 0.062174, Final residual = 0.000328013, No Iterations 5
linear solve U 406577
nonePCG:  Solving for p, Initial residual = 0.177825, Final residual = 9.70936e-05, No Iterations 275
linear solve p 1557451
time step continuity errors : sum local = 4.21047e-08, global = -3.30344e-22, cumulative = -4.10247e-20
nonePCG:  Solving for p, Initial residual = 0.149848, Final residual = 9.73347e-05, No Iterations 272
linear solve p 1566575
time step continuity errors : sum local = 3.93076e-08, global = 2.10406e-20, cumulative = -1.99841e-20
ExecutionTime = 45.53 s  ClockTime = 46 s

Time = 0.009

Courant Number mean: 0.111296 max: 0.754179
DILUPBiCGStab:  Solving for Ux, Initial residual = 0.00786575, Final residual = 2.30947e-05, No Iterations 5
DILUPBiCGStab:  Solving for Uy, Initial residual = 0.0194114, Final residual = 4.04792e-05, No Iterations 5
DILUPBiCGStab:  Solving for Uz, Initial residual = 0.0413536, Final residual = 0.00013565, No Iterations 5
linear solve U 405936
nonePCG:  Solving for p, Initial residual = 0.137495, Final residual = 9.81719e-05, No Iterations 268
linear solve p 1516610
time step continuity errors : sum local = 3.75188e-08, global = 2.41555e-20, cumulative = 4.17137e-21
nonePCG:  Solving for p, Initial residual = 0.116033, Final residual = 9.65468e-05, No Iterations 266
linear solve p 1525363
time step continuity errors : sum local = 3.64738e-08, global = 1.07668e-20, cumulative = 1.49381e-20
ExecutionTime = 49.22 s  ClockTime = 50 s

Time = 0.01

Courant Number mean: 0.115011 max: 0.756139
DILUPBiCGStab:  Solving for Ux, Initial residual = 0.00662964, Final residual = 1.77895e-05, No Iterations 5
DILUPBiCGStab:  Solving for Uy, Initial residual = 0.0166916, Final residual = 3.22043e-05, No Iterations 5
DILUPBiCGStab:  Solving for Uz, Initial residual = 0.0373628, Final residual = 0.000141786, No Iterations 5
linear solve U 400968
nonePCG:  Solving for p, Initial residual = 0.0985334, Final residual = 9.65689e-05, No Iterations 266
linear solve p 1517586
time step continuity errors : sum local = 4.18257e-08, global = 1.73846e-20, cumulative = 3.23227e-20
nonePCG:  Solving for p, Initial residual = 0.0823494, Final residual = 9.93844e-05, No Iterations 259
linear solve p 1505065
time step continuity errors : sum local = 3.87997e-08, global = 5.74976e-21, cumulative = 3.80725e-20
ExecutionTime = 52.87 s  ClockTime = 53 s

End

