/*---------------------------------------------------------------------------*\
  =========                 |
  \\      /  F ield         | OpenFOAM: The Open Source CFD Toolbox
   \\    /   O peration     | Website:  https://openfoam.org
    \\  /    A nd           | Version:  8
     \\/     M anipulation  |
\*---------------------------------------------------------------------------*/
Build  : 8-ef60d22ea792
Exec   : icoFoam
Date   : Jul 29 2021
Time   : 07:12:44
Host   : "uc2n414.localdomain"
PID    : 2883629
I/O    : uncollated
Case   : /pfs/data5/home/kit/scc/nq7776/code/OBR/lidDrivenCavity3D/Variation_mesh/80/Variation_matrix_solver/CG_BJ_OMP/base
nProcs : 1
sigFpe : Enabling floating point exception trapping (FOAM_SIGFPE).
fileModificationChecking : Monitoring run-time modified files using timeStampMaster (fileModificationSkew 10)
allowSystemOperations : Allowing user-supplied system call operations

// * * * * * * * * * * * * * * * * * * * * * * * * * * * * * * * * * * * * * //
Create time

Create mesh for time = 0

Reading transportProperties

Reading field p

Reading field U

Reading/calculating face flux field phi


Starting time loop

Time = 0.001

Courant Number mean: 0 max: 0
DILUPBiCGStab:  Solving for Ux, Initial residual = 1, Final residual = 0.00289442, No Iterations 5
DILUPBiCGStab:  Solving for Uy:  solution singularity
DILUPBiCGStab:  Solving for Uz:  solution singularity
linear solve U 246566
[OGL LOG] init_host_sparsity_pattern : 148 ms
[OGL LOG] matrix not stored update host matrix
[OGL LOG] update_host_mtx : 76 ms
[OGL LOG] matrix is not yet sorted, compute sorting idxs
[OGL LOG] compute_sort : 4476 ms
[OGL LOG] matrix is not yet sorted, sorting host matrix
[OGL LOG] sort_host_mtx_sparsity_pattern : 106 ms
[OGL LOG] sort_host_mtx : 64 ms
[OGL LOG] init_preconditioner : 137 ms
 CG create  precond 
[OGL LOG] solve : 22710 ms
BJompGKOCG:  Solving for p, Initial residual = 1, Final residual = 9.27925e-05, No Iterations 510
linear solve p 27827168
time step continuity errors : sum local = 5.44213e-08, global = 1.4203e-20, cumulative = 1.4203e-20
[OGL LOG] init_host_sparsity_pattern : 146 ms
[OGL LOG] matrix not stored update host matrix
[OGL LOG] update_host_mtx : 76 ms
[OGL LOG] matrix is not yet sorted, sorting host matrix
[OGL LOG] sort_host_mtx_sparsity_pattern : 107 ms
[OGL LOG] sort_host_mtx : 53 ms
[OGL LOG] init_preconditioner : 0 ms
 CG create  precond 
[OGL LOG] solve : 22167 ms
BJompGKOCG:  Solving for p, Initial residual = 0.745901, Final residual = 9.75793e-05, No Iterations 504
linear solve p 22616786
time step continuity errors : sum local = 7.44631e-08, global = 6.97336e-21, cumulative = 2.11763e-20
ExecutionTime = 52.64 s  ClockTime = 53 s

Time = 0.002

Courant Number mean: 0.0451638 max: 0.613749
DILUPBiCGStab:  Solving for Ux, Initial residual = 0.146312, Final residual = 0.00105951, No Iterations 5
DILUPBiCGStab:  Solving for Uy, Initial residual = 0.385217, Final residual = 0.00246578, No Iterations 5
DILUPBiCGStab:  Solving for Uz, Initial residual = 0.98734, Final residual = 0.00713065, No Iterations 5
linear solve U 480690
[OGL LOG] init_host_sparsity_pattern : 140 ms
[OGL LOG] matrix not stored update host matrix
[OGL LOG] update_host_mtx : 66 ms
[OGL LOG] matrix is not yet sorted, sorting host matrix
[OGL LOG] sort_host_mtx_sparsity_pattern : 106 ms
[OGL LOG] sort_host_mtx : 53 ms
[OGL LOG] init_preconditioner : 0 ms
 CG create  precond 
[OGL LOG] solve : 22199 ms
BJompGKOCG:  Solving for p, Initial residual = 0.724076, Final residual = 9.49293e-05, No Iterations 504
linear solve p 22630808
time step continuity errors : sum local = 8.56792e-08, global = 3.84933e-21, cumulative = 2.50257e-20
[OGL LOG] init_host_sparsity_pattern : 144 ms
[OGL LOG] matrix not stored update host matrix
[OGL LOG] update_host_mtx : 67 ms
[OGL LOG] matrix is not yet sorted, sorting host matrix
[OGL LOG] sort_host_mtx_sparsity_pattern : 106 ms
[OGL LOG] sort_host_mtx : 54 ms
[OGL LOG] init_preconditioner : 0 ms
 CG create  precond 
[OGL LOG] solve : 22137 ms
BJompGKOCG:  Solving for p, Initial residual = 0.656925, Final residual = 8.89316e-05, No Iterations 502
linear solve p 22576098
time step continuity errors : sum local = 8.19541e-08, global = -8.49407e-21, cumulative = 1.65316e-20
ExecutionTime = 98.52 s  ClockTime = 99 s

Time = 0.003

Courant Number mean: 0.067925 max: 0.721701
DILUPBiCGStab:  Solving for Ux, Initial residual = 0.0559034, Final residual = 0.000353253, No Iterations 5
DILUPBiCGStab:  Solving for Uy, Initial residual = 0.144794, Final residual = 0.000952012, No Iterations 5
DILUPBiCGStab:  Solving for Uz, Initial residual = 0.686692, Final residual = 0.0045619, No Iterations 5
linear solve U 474772
[OGL LOG] init_host_sparsity_pattern : 140 ms
[OGL LOG] matrix not stored update host matrix
[OGL LOG] update_host_mtx : 72 ms
[OGL LOG] matrix is not yet sorted, sorting host matrix
[OGL LOG] sort_host_mtx_sparsity_pattern : 106 ms
[OGL LOG] sort_host_mtx : 52 ms
[OGL LOG] init_preconditioner : 0 ms
 CG create  precond 
[OGL LOG] solve : 13549 ms
BJompGKOCG:  Solving for p, Initial residual = 0.705431, Final residual = 9.68636e-05, No Iterations 307
linear solve p 13985530
time step continuity errors : sum local = 7.86807e-08, global = -3.28625e-22, cumulative = 1.6203e-20
[OGL LOG] init_host_sparsity_pattern : 145 ms
[OGL LOG] matrix not stored update host matrix
[OGL LOG] update_host_mtx : 66 ms
[OGL LOG] matrix is not yet sorted, sorting host matrix
[OGL LOG] sort_host_mtx_sparsity_pattern : 106 ms
[OGL LOG] sort_host_mtx : 53 ms
[OGL LOG] init_preconditioner : 0 ms
 CG create  precond 
[OGL LOG] solve : 12035 ms
BJompGKOCG:  Solving for p, Initial residual = 0.663716, Final residual = 9.61909e-05, No Iterations 273
linear solve p 12470827
time step continuity errors : sum local = 6.8863e-08, global = -5.06503e-21, cumulative = 1.11379e-20
ExecutionTime = 125.67 s  ClockTime = 126 s

Time = 0.004

Courant Number mean: 0.0793948 max: 0.72887
DILUPBiCGStab:  Solving for Ux, Initial residual = 0.0295962, Final residual = 0.000182216, No Iterations 5
DILUPBiCGStab:  Solving for Uy, Initial residual = 0.100121, Final residual = 0.000584196, No Iterations 5
DILUPBiCGStab:  Solving for Uz, Initial residual = 0.391459, Final residual = 0.00215888, No Iterations 5
linear solve U 480952
[OGL LOG] init_host_sparsity_pattern : 142 ms
[OGL LOG] matrix not stored update host matrix
[OGL LOG] update_host_mtx : 66 ms
[OGL LOG] matrix is not yet sorted, sorting host matrix
[OGL LOG] sort_host_mtx_sparsity_pattern : 106 ms
[OGL LOG] sort_host_mtx : 52 ms
[OGL LOG] init_preconditioner : 0 ms
 CG create  precond 
[OGL LOG] solve : 12045 ms
BJompGKOCG:  Solving for p, Initial residual = 0.527048, Final residual = 9.78016e-05, No Iterations 273
linear solve p 12478180
time step continuity errors : sum local = 6.03077e-08, global = -2.92386e-21, cumulative = 8.21409e-21
[OGL LOG] init_host_sparsity_pattern : 140 ms
[OGL LOG] matrix not stored update host matrix
[OGL LOG] update_host_mtx : 66 ms
[OGL LOG] matrix is not yet sorted, sorting host matrix
[OGL LOG] sort_host_mtx_sparsity_pattern : 106 ms
[OGL LOG] sort_host_mtx : 52 ms
[OGL LOG] init_preconditioner : 0 ms
 CG create  precond 
[OGL LOG] solve : 11771 ms
BJompGKOCG:  Solving for p, Initial residual = 0.463296, Final residual = 9.85932e-05, No Iterations 267
linear solve p 12203786
time step continuity errors : sum local = 6.04989e-08, global = 5.31557e-21, cumulative = 1.35297e-20
ExecutionTime = 151.07 s  ClockTime = 152 s

Time = 0.005

Courant Number mean: 0.0889341 max: 0.739433
DILUPBiCGStab:  Solving for Ux, Initial residual = 0.0218898, Final residual = 0.000116422, No Iterations 5
DILUPBiCGStab:  Solving for Uy, Initial residual = 0.0522758, Final residual = 0.000204367, No Iterations 5
DILUPBiCGStab:  Solving for Uz, Initial residual = 0.183532, Final residual = 0.00115462, No Iterations 5
linear solve U 482103
[OGL LOG] init_host_sparsity_pattern : 139 ms
[OGL LOG] matrix not stored update host matrix
[OGL LOG] update_host_mtx : 67 ms
[OGL LOG] matrix is not yet sorted, sorting host matrix
[OGL LOG] sort_host_mtx_sparsity_pattern : 106 ms
[OGL LOG] sort_host_mtx : 52 ms
[OGL LOG] init_preconditioner : 0 ms
 CG create  precond 
[OGL LOG] solve : 21035 ms
BJompGKOCG:  Solving for p, Initial residual = 0.462196, Final residual = 9.47681e-05, No Iterations 476
linear solve p 21465576
time step continuity errors : sum local = 4.45761e-08, global = -1.21615e-20, cumulative = 1.36818e-21
[OGL LOG] init_host_sparsity_pattern : 138 ms
[OGL LOG] matrix not stored update host matrix
[OGL LOG] update_host_mtx : 67 ms
[OGL LOG] matrix is not yet sorted, sorting host matrix
[OGL LOG] sort_host_mtx_sparsity_pattern : 106 ms
[OGL LOG] sort_host_mtx : 57 ms
[OGL LOG] init_preconditioner : 0 ms
 CG create  precond 
[OGL LOG] solve : 21096 ms
BJompGKOCG:  Solving for p, Initial residual = 0.409613, Final residual = 9.99e-05, No Iterations 479
linear solve p 21531066
time step continuity errors : sum local = 4.65165e-08, global = -1.20522e-20, cumulative = -1.0684e-20
ExecutionTime = 194.73 s  ClockTime = 195 s

Time = 0.006

Courant Number mean: 0.0960653 max: 0.745156
DILUPBiCGStab:  Solving for Ux, Initial residual = 0.0146608, Final residual = 6.8796e-05, No Iterations 5
DILUPBiCGStab:  Solving for Uy, Initial residual = 0.0417258, Final residual = 0.000169416, No Iterations 5
DILUPBiCGStab:  Solving for Uz, Initial residual = 0.139544, Final residual = 0.000811398, No Iterations 5
linear solve U 475679
[OGL LOG] init_host_sparsity_pattern : 142 ms
[OGL LOG] matrix not stored update host matrix
[OGL LOG] update_host_mtx : 66 ms
[OGL LOG] matrix is not yet sorted, sorting host matrix
[OGL LOG] sort_host_mtx_sparsity_pattern : 111 ms
[OGL LOG] sort_host_mtx : 53 ms
[OGL LOG] init_preconditioner : 0 ms
 CG create  precond 
[OGL LOG] solve : 10479 ms
BJompGKOCG:  Solving for p, Initial residual = 0.316922, Final residual = 9.18226e-05, No Iterations 237
linear solve p 10918435
time step continuity errors : sum local = 4.5119e-08, global = -1.17804e-20, cumulative = -2.24644e-20
[OGL LOG] init_host_sparsity_pattern : 140 ms
[OGL LOG] matrix not stored update host matrix
[OGL LOG] update_host_mtx : 66 ms
[OGL LOG] matrix is not yet sorted, sorting host matrix
[OGL LOG] sort_host_mtx_sparsity_pattern : 107 ms
[OGL LOG] sort_host_mtx : 53 ms
[OGL LOG] init_preconditioner : 0 ms
 CG create  precond 
[OGL LOG] solve : 10383 ms
BJompGKOCG:  Solving for p, Initial residual = 0.27232, Final residual = 9.4947e-05, No Iterations 235
linear solve p 10816244
time step continuity errors : sum local = 4.36156e-08, global = 9.50608e-22, cumulative = -2.15138e-20
ExecutionTime = 217.18 s  ClockTime = 218 s

Time = 0.007

Courant Number mean: 0.102039 max: 0.748857
DILUPBiCGStab:  Solving for Ux, Initial residual = 0.0119922, Final residual = 4.82789e-05, No Iterations 5
DILUPBiCGStab:  Solving for Uy, Initial residual = 0.0290042, Final residual = 7.92702e-05, No Iterations 5
DILUPBiCGStab:  Solving for Uz, Initial residual = 0.0731901, Final residual = 0.000391795, No Iterations 5
linear solve U 479692
[OGL LOG] init_host_sparsity_pattern : 141 ms
[OGL LOG] matrix not stored update host matrix
[OGL LOG] update_host_mtx : 69 ms
[OGL LOG] matrix is not yet sorted, sorting host matrix
[OGL LOG] sort_host_mtx_sparsity_pattern : 107 ms
[OGL LOG] sort_host_mtx : 53 ms
[OGL LOG] init_preconditioner : 0 ms
 CG create  precond 
[OGL LOG] solve : 10035 ms
BJompGKOCG:  Solving for p, Initial residual = 0.254711, Final residual = 9.83406e-05, No Iterations 227
linear solve p 10471514
time step continuity errors : sum local = 4.12537e-08, global = 3.75821e-21, cumulative = -1.77556e-20
[OGL LOG] init_host_sparsity_pattern : 140 ms
[OGL LOG] matrix not stored update host matrix
[OGL LOG] update_host_mtx : 66 ms
[OGL LOG] matrix is not yet sorted, sorting host matrix
[OGL LOG] sort_host_mtx_sparsity_pattern : 107 ms
[OGL LOG] sort_host_mtx : 53 ms
[OGL LOG] init_preconditioner : 0 ms
 CG create  precond 
[OGL LOG] solve : 9955 ms
BJompGKOCG:  Solving for p, Initial residual = 0.218241, Final residual = 9.41132e-05, No Iterations 225
linear solve p 10387741
time step continuity errors : sum local = 3.81922e-08, global = -1.89348e-20, cumulative = -3.66904e-20
ExecutionTime = 238.75 s  ClockTime = 240 s

Time = 0.008

Courant Number mean: 0.10702 max: 0.752043
DILUPBiCGStab:  Solving for Ux, Initial residual = 0.00935191, Final residual = 3.41138e-05, No Iterations 5
DILUPBiCGStab:  Solving for Uy, Initial residual = 0.0242799, Final residual = 6.39914e-05, No Iterations 5
DILUPBiCGStab:  Solving for Uz, Initial residual = 0.0622493, Final residual = 0.000327822, No Iterations 5
linear solve U 476156
[OGL LOG] init_host_sparsity_pattern : 139 ms
[OGL LOG] matrix not stored update host matrix
[OGL LOG] update_host_mtx : 68 ms
[OGL LOG] matrix is not yet sorted, sorting host matrix
[OGL LOG] sort_host_mtx_sparsity_pattern : 106 ms
[OGL LOG] sort_host_mtx : 52 ms
[OGL LOG] init_preconditioner : 0 ms
 CG create  precond 
[OGL LOG] solve : 9856 ms
BJompGKOCG:  Solving for p, Initial residual = 0.177894, Final residual = 9.89764e-05, No Iterations 223
linear solve p 10293013
time step continuity errors : sum local = 4.17107e-08, global = -5.17432e-21, cumulative = -4.18647e-20
[OGL LOG] init_host_sparsity_pattern : 140 ms
[OGL LOG] matrix not stored update host matrix
[OGL LOG] update_host_mtx : 68 ms
[OGL LOG] matrix is not yet sorted, sorting host matrix
[OGL LOG] sort_host_mtx_sparsity_pattern : 107 ms
[OGL LOG] sort_host_mtx : 53 ms
[OGL LOG] init_preconditioner : 0 ms
 CG create  precond 
[OGL LOG] solve : 9762 ms
BJompGKOCG:  Solving for p, Initial residual = 0.149919, Final residual = 9.91144e-05, No Iterations 221
linear solve p 10197773
time step continuity errors : sum local = 3.96504e-08, global = 1.73949e-21, cumulative = -4.01252e-20
ExecutionTime = 259.95 s  ClockTime = 261 s

Time = 0.009

Courant Number mean: 0.111296 max: 0.754177
DILUPBiCGStab:  Solving for Ux, Initial residual = 0.00786648, Final residual = 2.30947e-05, No Iterations 5
DILUPBiCGStab:  Solving for Uy, Initial residual = 0.0194069, Final residual = 4.04883e-05, No Iterations 5
DILUPBiCGStab:  Solving for Uz, Initial residual = 0.0413691, Final residual = 0.000135572, No Iterations 5
linear solve U 474640
[OGL LOG] init_host_sparsity_pattern : 147 ms
[OGL LOG] matrix not stored update host matrix
[OGL LOG] update_host_mtx : 67 ms
[OGL LOG] matrix is not yet sorted, sorting host matrix
[OGL LOG] sort_host_mtx_sparsity_pattern : 108 ms
[OGL LOG] sort_host_mtx : 53 ms
[OGL LOG] init_preconditioner : 0 ms
 CG create  precond 
[OGL LOG] solve : 9543 ms
BJompGKOCG:  Solving for p, Initial residual = 0.137553, Final residual = 9.93996e-05, No Iterations 216
linear solve p 9984960
time step continuity errors : sum local = 3.8566e-08, global = 6.46099e-21, cumulative = -3.36642e-20
[OGL LOG] init_host_sparsity_pattern : 140 ms
[OGL LOG] matrix not stored update host matrix
[OGL LOG] update_host_mtx : 67 ms
[OGL LOG] matrix is not yet sorted, sorting host matrix
[OGL LOG] sort_host_mtx_sparsity_pattern : 106 ms
[OGL LOG] sort_host_mtx : 52 ms
[OGL LOG] init_preconditioner : 0 ms
 CG create  precond 
[OGL LOG] solve : 9456 ms
BJompGKOCG:  Solving for p, Initial residual = 0.11608, Final residual = 9.73125e-05, No Iterations 214
linear solve p 9888528
time step continuity errors : sum local = 3.72839e-08, global = -1.78746e-21, cumulative = -3.54517e-20
ExecutionTime = 280.54 s  ClockTime = 281 s

Time = 0.01

Courant Number mean: 0.115011 max: 0.756141
DILUPBiCGStab:  Solving for Ux, Initial residual = 0.00662671, Final residual = 1.77841e-05, No Iterations 5
DILUPBiCGStab:  Solving for Uy, Initial residual = 0.0166948, Final residual = 3.21865e-05, No Iterations 5
DILUPBiCGStab:  Solving for Uz, Initial residual = 0.0370867, Final residual = 0.000140492, No Iterations 5
linear solve U 475444
[OGL LOG] init_host_sparsity_pattern : 140 ms
[OGL LOG] matrix not stored update host matrix
[OGL LOG] update_host_mtx : 66 ms
[OGL LOG] matrix is not yet sorted, sorting host matrix
[OGL LOG] sort_host_mtx_sparsity_pattern : 106 ms
[OGL LOG] sort_host_mtx : 54 ms
[OGL LOG] init_preconditioner : 0 ms
 CG create  precond 
[OGL LOG] solve : 9380 ms
BJompGKOCG:  Solving for p, Initial residual = 0.0986704, Final residual = 9.91993e-05, No Iterations 212
linear solve p 9811711
time step continuity errors : sum local = 3.98161e-08, global = 3.50237e-21, cumulative = -3.19493e-20
[OGL LOG] init_host_sparsity_pattern : 139 ms
[OGL LOG] matrix not stored update host matrix
[OGL LOG] update_host_mtx : 67 ms
[OGL LOG] matrix is not yet sorted, sorting host matrix
[OGL LOG] sort_host_mtx_sparsity_pattern : 106 ms
[OGL LOG] sort_host_mtx : 52 ms
[OGL LOG] init_preconditioner : 0 ms
 CG create  precond 
[OGL LOG] solve : 9272 ms
BJompGKOCG:  Solving for p, Initial residual = 0.0824723, Final residual = 9.96539e-05, No Iterations 210
linear solve p 9703629
time step continuity errors : sum local = 3.80042e-08, global = -2.35459e-20, cumulative = -5.54952e-20
ExecutionTime = 300.77 s  ClockTime = 302 s

End

