/*---------------------------------------------------------------------------*\
  =========                 |
  \\      /  F ield         | OpenFOAM: The Open Source CFD Toolbox
   \\    /   O peration     | Website:  https://openfoam.org
    \\  /    A nd           | Version:  8
     \\/     M anipulation  |
\*---------------------------------------------------------------------------*/
Build  : 8-ef60d22ea792
Exec   : icoFoam
Date   : Jul 29 2021
Time   : 03:47:38
Host   : "uc2n489.localdomain"
PID    : 3422569
I/O    : uncollated
Case   : /pfs/data5/home/kit/scc/nq7776/code/OBR/lidDrivenCavity3D/Variation_mesh/80/Variation_matrix_solver/CG_NoPrecond_CUDA/base
nProcs : 1
sigFpe : Enabling floating point exception trapping (FOAM_SIGFPE).
fileModificationChecking : Monitoring run-time modified files using timeStampMaster (fileModificationSkew 10)
allowSystemOperations : Allowing user-supplied system call operations

// * * * * * * * * * * * * * * * * * * * * * * * * * * * * * * * * * * * * * //
Create time

Create mesh for time = 0

Reading transportProperties

Reading field p

Reading field U

Reading/calculating face flux field phi


Starting time loop

Time = 0.001

Courant Number mean: 0 max: 0
DILUPBiCGStab:  Solving for Ux, Initial residual = 1, Final residual = 0.00289442, No Iterations 5
DILUPBiCGStab:  Solving for Uy:  solution singularity
DILUPBiCGStab:  Solving for Uz:  solution singularity
linear solve U 253916
[OGL LOG] init_host_sparsity_pattern : 144 ms
[OGL LOG] matrix not stored update host matrix
[OGL LOG] update_host_mtx : 75 ms
[OGL LOG] matrix is not yet sorted, compute sorting idxs
[OGL LOG] compute_sort : 4437 ms
[OGL LOG] matrix is not yet sorted, sorting host matrix
[OGL LOG] sort_host_mtx_sparsity_pattern : 102 ms
[OGL LOG] sort_host_mtx : 58 ms
[OGL LOG] init_preconditioner : 0 ms
[OGL LOG] solve : 450 ms
nonecudaGKOCG:  Solving for p, Initial residual = 1, Final residual = 9.96273e-05, No Iterations 630
linear solve p 6040570
time step continuity errors : sum local = 5.84317e-08, global = 1.77785e-20, cumulative = 1.77785e-20
[OGL LOG] init_host_sparsity_pattern : 137 ms
[OGL LOG] matrix not stored update host matrix
[OGL LOG] update_host_mtx : 75 ms
[OGL LOG] matrix is not yet sorted, sorting host matrix
[OGL LOG] sort_host_mtx_sparsity_pattern : 110 ms
[OGL LOG] sort_host_mtx : 54 ms
[OGL LOG] init_preconditioner : 0 ms
[OGL LOG] solve : 451 ms
nonecudaGKOCG:  Solving for p, Initial residual = 0.745901, Final residual = 9.94891e-05, No Iterations 622
linear solve p 863086
time step continuity errors : sum local = 7.59235e-08, global = 2.08523e-21, cumulative = 1.98637e-20
ExecutionTime = 9.19 s  ClockTime = 9 s

Time = 0.002

Courant Number mean: 0.0451638 max: 0.613749
DILUPBiCGStab:  Solving for Ux, Initial residual = 0.146312, Final residual = 0.00105952, No Iterations 5
DILUPBiCGStab:  Solving for Uy, Initial residual = 0.385219, Final residual = 0.00246579, No Iterations 5
DILUPBiCGStab:  Solving for Uz, Initial residual = 0.987339, Final residual = 0.00712871, No Iterations 5
linear solve U 499486
[OGL LOG] init_host_sparsity_pattern : 141 ms
[OGL LOG] matrix not stored update host matrix
[OGL LOG] update_host_mtx : 75 ms
[OGL LOG] matrix is not yet sorted, sorting host matrix
[OGL LOG] sort_host_mtx_sparsity_pattern : 105 ms
[OGL LOG] sort_host_mtx : 52 ms
[OGL LOG] init_preconditioner : 0 ms
[OGL LOG] solve : 450 ms
nonecudaGKOCG:  Solving for p, Initial residual = 0.724052, Final residual = 9.83099e-05, No Iterations 619
linear solve p 857698
time step continuity errors : sum local = 8.87264e-08, global = 1.80291e-20, cumulative = 3.78928e-20
[OGL LOG] init_host_sparsity_pattern : 140 ms
[OGL LOG] matrix not stored update host matrix
[OGL LOG] update_host_mtx : 75 ms
[OGL LOG] matrix is not yet sorted, sorting host matrix
[OGL LOG] sort_host_mtx_sparsity_pattern : 105 ms
[OGL LOG] sort_host_mtx : 52 ms
[OGL LOG] init_preconditioner : 0 ms
[OGL LOG] solve : 449 ms
nonecudaGKOCG:  Solving for p, Initial residual = 0.656901, Final residual = 9.78776e-05, No Iterations 617
linear solve p 856119
time step continuity errors : sum local = 9.01938e-08, global = 1.24048e-21, cumulative = 3.91333e-20
ExecutionTime = 11.71 s  ClockTime = 12 s

Time = 0.003

Courant Number mean: 0.0679251 max: 0.721702
DILUPBiCGStab:  Solving for Ux, Initial residual = 0.0559034, Final residual = 0.000353232, No Iterations 5
DILUPBiCGStab:  Solving for Uy, Initial residual = 0.144779, Final residual = 0.000951858, No Iterations 5
DILUPBiCGStab:  Solving for Uz, Initial residual = 0.686645, Final residual = 0.00456139, No Iterations 5
linear solve U 494485
[OGL LOG] init_host_sparsity_pattern : 138 ms
[OGL LOG] matrix not stored update host matrix
[OGL LOG] update_host_mtx : 75 ms
[OGL LOG] matrix is not yet sorted, sorting host matrix
[OGL LOG] sort_host_mtx_sparsity_pattern : 114 ms
[OGL LOG] sort_host_mtx : 59 ms
[OGL LOG] init_preconditioner : 0 ms
[OGL LOG] solve : 271 ms
nonecudaGKOCG:  Solving for p, Initial residual = 0.705437, Final residual = 9.84067e-05, No Iterations 372
linear solve p 696001
time step continuity errors : sum local = 7.96369e-08, global = 8.0933e-21, cumulative = 4.72266e-20
[OGL LOG] init_host_sparsity_pattern : 140 ms
[OGL LOG] matrix not stored update host matrix
[OGL LOG] update_host_mtx : 75 ms
[OGL LOG] matrix is not yet sorted, sorting host matrix
[OGL LOG] sort_host_mtx_sparsity_pattern : 104 ms
[OGL LOG] sort_host_mtx : 52 ms
[OGL LOG] init_preconditioner : 0 ms
[OGL LOG] solve : 247 ms
nonecudaGKOCG:  Solving for p, Initial residual = 0.663718, Final residual = 9.98933e-05, No Iterations 337
linear solve p 653332
time step continuity errors : sum local = 7.13507e-08, global = 5.44333e-21, cumulative = 5.26699e-20
ExecutionTime = 13.86 s  ClockTime = 14 s

Time = 0.004

Courant Number mean: 0.0793946 max: 0.728868
DILUPBiCGStab:  Solving for Ux, Initial residual = 0.029595, Final residual = 0.000182211, No Iterations 5
DILUPBiCGStab:  Solving for Uy, Initial residual = 0.100119, Final residual = 0.000584242, No Iterations 5
DILUPBiCGStab:  Solving for Uz, Initial residual = 0.391392, Final residual = 0.00215904, No Iterations 5
linear solve U 495101
[OGL LOG] init_host_sparsity_pattern : 139 ms
[OGL LOG] matrix not stored update host matrix
[OGL LOG] update_host_mtx : 75 ms
[OGL LOG] matrix is not yet sorted, sorting host matrix
[OGL LOG] sort_host_mtx_sparsity_pattern : 105 ms
[OGL LOG] sort_host_mtx : 52 ms
[OGL LOG] init_preconditioner : 0 ms
[OGL LOG] solve : 247 ms
nonecudaGKOCG:  Solving for p, Initial residual = 0.527083, Final residual = 9.92664e-05, No Iterations 338
linear solve p 651944
time step continuity errors : sum local = 6.1345e-08, global = 1.10519e-20, cumulative = 6.37218e-20
[OGL LOG] init_host_sparsity_pattern : 140 ms
[OGL LOG] matrix not stored update host matrix
[OGL LOG] update_host_mtx : 75 ms
[OGL LOG] matrix is not yet sorted, sorting host matrix
[OGL LOG] sort_host_mtx_sparsity_pattern : 104 ms
[OGL LOG] sort_host_mtx : 52 ms
[OGL LOG] init_preconditioner : 0 ms
[OGL LOG] solve : 246 ms
nonecudaGKOCG:  Solving for p, Initial residual = 0.463335, Final residual = 9.88809e-05, No Iterations 333
linear solve p 652789
time step continuity errors : sum local = 6.07267e-08, global = 1.03983e-20, cumulative = 7.41201e-20
ExecutionTime = 15.97 s  ClockTime = 16 s

Time = 0.005

Courant Number mean: 0.0889341 max: 0.739432
DILUPBiCGStab:  Solving for Ux, Initial residual = 0.0218897, Final residual = 0.000116414, No Iterations 5
DILUPBiCGStab:  Solving for Uy, Initial residual = 0.0522695, Final residual = 0.000204388, No Iterations 5
DILUPBiCGStab:  Solving for Uz, Initial residual = 0.183203, Final residual = 0.00114961, No Iterations 5
linear solve U 497223
[OGL LOG] init_host_sparsity_pattern : 139 ms
[OGL LOG] matrix not stored update host matrix
[OGL LOG] update_host_mtx : 75 ms
[OGL LOG] matrix is not yet sorted, sorting host matrix
[OGL LOG] sort_host_mtx_sparsity_pattern : 108 ms
[OGL LOG] sort_host_mtx : 52 ms
[OGL LOG] init_preconditioner : 0 ms
[OGL LOG] solve : 439 ms
nonecudaGKOCG:  Solving for p, Initial residual = 0.462182, Final residual = 9.98498e-05, No Iterations 603
linear solve p 849080
time step continuity errors : sum local = 4.69666e-08, global = -2.18175e-21, cumulative = 7.19383e-20
[OGL LOG] init_host_sparsity_pattern : 140 ms
[OGL LOG] matrix not stored update host matrix
[OGL LOG] update_host_mtx : 75 ms
[OGL LOG] matrix is not yet sorted, sorting host matrix
[OGL LOG] sort_host_mtx_sparsity_pattern : 105 ms
[OGL LOG] sort_host_mtx : 52 ms
[OGL LOG] init_preconditioner : 0 ms
[OGL LOG] solve : 437 ms
nonecudaGKOCG:  Solving for p, Initial residual = 0.40961, Final residual = 9.76474e-05, No Iterations 603
linear solve p 843234
time step continuity errors : sum local = 4.54644e-08, global = 3.9292e-21, cumulative = 7.58675e-20
ExecutionTime = 18.45 s  ClockTime = 18 s

Time = 0.006

Courant Number mean: 0.0960652 max: 0.745158
DILUPBiCGStab:  Solving for Ux, Initial residual = 0.0146607, Final residual = 6.87988e-05, No Iterations 5
DILUPBiCGStab:  Solving for Uy, Initial residual = 0.0417246, Final residual = 0.000169411, No Iterations 5
DILUPBiCGStab:  Solving for Uz, Initial residual = 0.139255, Final residual = 0.000809583, No Iterations 5
linear solve U 497229
[OGL LOG] init_host_sparsity_pattern : 141 ms
[OGL LOG] matrix not stored update host matrix
[OGL LOG] update_host_mtx : 78 ms
[OGL LOG] matrix is not yet sorted, sorting host matrix
[OGL LOG] sort_host_mtx_sparsity_pattern : 107 ms
[OGL LOG] sort_host_mtx : 52 ms
[OGL LOG] init_preconditioner : 0 ms
[OGL LOG] solve : 212 ms
nonecudaGKOCG:  Solving for p, Initial residual = 0.316762, Final residual = 9.65921e-05, No Iterations 289
linear solve p 626109
time step continuity errors : sum local = 4.76499e-08, global = -1.00001e-20, cumulative = 6.58675e-20
[OGL LOG] init_host_sparsity_pattern : 140 ms
[OGL LOG] matrix not stored update host matrix
[OGL LOG] update_host_mtx : 75 ms
[OGL LOG] matrix is not yet sorted, sorting host matrix
[OGL LOG] sort_host_mtx_sparsity_pattern : 105 ms
[OGL LOG] sort_host_mtx : 52 ms
[OGL LOG] init_preconditioner : 0 ms
[OGL LOG] solve : 210 ms
nonecudaGKOCG:  Solving for p, Initial residual = 0.272166, Final residual = 9.36302e-05, No Iterations 287
linear solve p 616177
time step continuity errors : sum local = 4.3147e-08, global = -1.81495e-20, cumulative = 4.77179e-20
ExecutionTime = 20.49 s  ClockTime = 20 s

Time = 0.007

Courant Number mean: 0.102039 max: 0.748859
DILUPBiCGStab:  Solving for Ux, Initial residual = 0.0119916, Final residual = 4.82759e-05, No Iterations 5
DILUPBiCGStab:  Solving for Uy, Initial residual = 0.0290035, Final residual = 7.92784e-05, No Iterations 5
DILUPBiCGStab:  Solving for Uz, Initial residual = 0.0730756, Final residual = 0.000389809, No Iterations 5
linear solve U 502022
[OGL LOG] init_host_sparsity_pattern : 139 ms
[OGL LOG] matrix not stored update host matrix
[OGL LOG] update_host_mtx : 75 ms
[OGL LOG] matrix is not yet sorted, sorting host matrix
[OGL LOG] sort_host_mtx_sparsity_pattern : 104 ms
[OGL LOG] sort_host_mtx : 52 ms
[OGL LOG] init_preconditioner : 0 ms
[OGL LOG] solve : 203 ms
nonecudaGKOCG:  Solving for p, Initial residual = 0.254573, Final residual = 9.84362e-05, No Iterations 278
linear solve p 607777
time step continuity errors : sum local = 4.06841e-08, global = -1.47519e-20, cumulative = 3.2966e-20
[OGL LOG] init_host_sparsity_pattern : 145 ms
[OGL LOG] matrix not stored update host matrix
[OGL LOG] update_host_mtx : 75 ms
[OGL LOG] matrix is not yet sorted, sorting host matrix
[OGL LOG] sort_host_mtx_sparsity_pattern : 104 ms
[OGL LOG] sort_host_mtx : 52 ms
[OGL LOG] init_preconditioner : 0 ms
[OGL LOG] solve : 202 ms
nonecudaGKOCG:  Solving for p, Initial residual = 0.218112, Final residual = 9.63646e-05, No Iterations 276
linear solve p 613653
time step continuity errors : sum local = 3.89194e-08, global = 1.19127e-21, cumulative = 3.41573e-20
ExecutionTime = 22.52 s  ClockTime = 22 s

Time = 0.008

Courant Number mean: 0.10702 max: 0.752042
DILUPBiCGStab:  Solving for Ux, Initial residual = 0.00935299, Final residual = 3.41181e-05, No Iterations 5
DILUPBiCGStab:  Solving for Uy, Initial residual = 0.024277, Final residual = 6.39825e-05, No Iterations 5
DILUPBiCGStab:  Solving for Uz, Initial residual = 0.062174, Final residual = 0.000328013, No Iterations 5
linear solve U 500745
[OGL LOG] init_host_sparsity_pattern : 139 ms
[OGL LOG] matrix not stored update host matrix
[OGL LOG] update_host_mtx : 75 ms
[OGL LOG] matrix is not yet sorted, sorting host matrix
[OGL LOG] sort_host_mtx_sparsity_pattern : 108 ms
[OGL LOG] sort_host_mtx : 52 ms
[OGL LOG] init_preconditioner : 0 ms
[OGL LOG] solve : 202 ms
nonecudaGKOCG:  Solving for p, Initial residual = 0.177825, Final residual = 9.67202e-05, No Iterations 275
linear solve p 611280
time step continuity errors : sum local = 4.19594e-08, global = 1.5315e-20, cumulative = 4.94724e-20
[OGL LOG] init_host_sparsity_pattern : 140 ms
[OGL LOG] matrix not stored update host matrix
[OGL LOG] update_host_mtx : 75 ms
[OGL LOG] matrix is not yet sorted, sorting host matrix
[OGL LOG] sort_host_mtx_sparsity_pattern : 105 ms
[OGL LOG] sort_host_mtx : 53 ms
[OGL LOG] init_preconditioner : 0 ms
[OGL LOG] solve : 200 ms
nonecudaGKOCG:  Solving for p, Initial residual = 0.149848, Final residual = 9.71727e-05, No Iterations 272
linear solve p 606874
time step continuity errors : sum local = 3.92447e-08, global = 3.11025e-21, cumulative = 5.25826e-20
ExecutionTime = 24.54 s  ClockTime = 24 s

Time = 0.009

Courant Number mean: 0.111296 max: 0.754179
DILUPBiCGStab:  Solving for Ux, Initial residual = 0.00786575, Final residual = 2.30947e-05, No Iterations 5
DILUPBiCGStab:  Solving for Uy, Initial residual = 0.0194114, Final residual = 4.04793e-05, No Iterations 5
DILUPBiCGStab:  Solving for Uz, Initial residual = 0.0413535, Final residual = 0.00013565, No Iterations 5
linear solve U 494028
[OGL LOG] init_host_sparsity_pattern : 139 ms
[OGL LOG] matrix not stored update host matrix
[OGL LOG] update_host_mtx : 75 ms
[OGL LOG] matrix is not yet sorted, sorting host matrix
[OGL LOG] sort_host_mtx_sparsity_pattern : 105 ms
[OGL LOG] sort_host_mtx : 52 ms
[OGL LOG] init_preconditioner : 0 ms
[OGL LOG] solve : 197 ms
nonecudaGKOCG:  Solving for p, Initial residual = 0.137495, Final residual = 9.83639e-05, No Iterations 268
linear solve p 600686
time step continuity errors : sum local = 3.75909e-08, global = -6.00257e-21, cumulative = 4.658e-20
[OGL LOG] init_host_sparsity_pattern : 140 ms
[OGL LOG] matrix not stored update host matrix
[OGL LOG] update_host_mtx : 75 ms
[OGL LOG] matrix is not yet sorted, sorting host matrix
[OGL LOG] sort_host_mtx_sparsity_pattern : 105 ms
[OGL LOG] sort_host_mtx : 52 ms
[OGL LOG] init_preconditioner : 0 ms
[OGL LOG] solve : 195 ms
nonecudaGKOCG:  Solving for p, Initial residual = 0.116033, Final residual = 9.63662e-05, No Iterations 266
linear solve p 600871
time step continuity errors : sum local = 3.64058e-08, global = 8.56302e-21, cumulative = 5.51431e-20
ExecutionTime = 26.54 s  ClockTime = 26 s

Time = 0.01

Courant Number mean: 0.115011 max: 0.756139
DILUPBiCGStab:  Solving for Ux, Initial residual = 0.00662965, Final residual = 1.77895e-05, No Iterations 5
DILUPBiCGStab:  Solving for Uy, Initial residual = 0.0166916, Final residual = 3.22044e-05, No Iterations 5
DILUPBiCGStab:  Solving for Uz, Initial residual = 0.0373627, Final residual = 0.000141786, No Iterations 5
linear solve U 494615
[OGL LOG] init_host_sparsity_pattern : 145 ms
[OGL LOG] matrix not stored update host matrix
[OGL LOG] update_host_mtx : 78 ms
[OGL LOG] matrix is not yet sorted, sorting host matrix
[OGL LOG] sort_host_mtx_sparsity_pattern : 106 ms
[OGL LOG] sort_host_mtx : 52 ms
[OGL LOG] init_preconditioner : 0 ms
[OGL LOG] solve : 195 ms
nonecudaGKOCG:  Solving for p, Initial residual = 0.0985335, Final residual = 9.67988e-05, No Iterations 266
linear solve p 610475
time step continuity errors : sum local = 4.19101e-08, global = 3.75127e-21, cumulative = 5.88943e-20
[OGL LOG] init_host_sparsity_pattern : 140 ms
[OGL LOG] matrix not stored update host matrix
[OGL LOG] update_host_mtx : 75 ms
[OGL LOG] matrix is not yet sorted, sorting host matrix
[OGL LOG] sort_host_mtx_sparsity_pattern : 105 ms
[OGL LOG] sort_host_mtx : 52 ms
[OGL LOG] init_preconditioner : 0 ms
[OGL LOG] solve : 190 ms
nonecudaGKOCG:  Solving for p, Initial residual = 0.0823494, Final residual = 9.90789e-05, No Iterations 259
linear solve p 596179
time step continuity errors : sum local = 3.86876e-08, global = -1.05193e-20, cumulative = 4.83751e-20
ExecutionTime = 28.54 s  ClockTime = 28 s

End

