/*---------------------------------------------------------------------------*\
  =========                 |
  \\      /  F ield         | OpenFOAM: The Open Source CFD Toolbox
   \\    /   O peration     | Website:  https://openfoam.org
    \\  /    A nd           | Version:  8
     \\/     M anipulation  |
\*---------------------------------------------------------------------------*/
Build  : 8-14d69e1ee166
Exec   : icoFoam
Date   : Jul 29 2021
Time   : 03:41:16
Host   : "guyot.icl.utk.edu"
PID    : 68414
I/O    : uncollated
Case   : /home/greole/code/OBR/lidDrivenCavity3D/Variation_mesh/45/Variation_matrix_solver/BiCGStab_NoPrecond_Serial/base
nProcs : 1
sigFpe : Enabling floating point exception trapping (FOAM_SIGFPE).
fileModificationChecking : Monitoring run-time modified files using timeStampMaster (fileModificationSkew 10)
allowSystemOperations : Allowing user-supplied system call operations

// * * * * * * * * * * * * * * * * * * * * * * * * * * * * * * * * * * * * * //
Create time

Create mesh for time = 0

Reading transportProperties

Reading field p

Reading field U

Reading/calculating face flux field phi


Starting time loop

Time = 0.001

Courant Number mean: 0 max: 0
DILUPBiCGStab:  Solving for Ux, Initial residual = 1, Final residual = 4.36896e-05, No Iterations 5
DILUPBiCGStab:  Solving for Uy:  solution singularity
DILUPBiCGStab:  Solving for Uz:  solution singularity
linear solve U 34562
nonePBiCGStab:  Solving for p, Initial residual = 1, Final residual = 8.36564e-05, No Iterations 284
linear solve p 516379
time step continuity errors : sum local = 9.58267e-08, global = -1.57268e-21, cumulative = -1.57268e-21
nonePBiCGStab:  Solving for p, Initial residual = 0.635124, Final residual = 9.00435e-05, No Iterations 282
linear solve p 510749
time step continuity errors : sum local = 1.48874e-07, global = 9.29635e-22, cumulative = -6.43042e-22
ExecutionTime = 1.55 s  ClockTime = 2 s

Time = 0.002

Courant Number mean: 0.0244632 max: 0.283008
DILUPBiCGStab:  Solving for Ux, Initial residual = 0.172709, Final residual = 9.21246e-06, No Iterations 5
DILUPBiCGStab:  Solving for Uy, Initial residual = 0.302934, Final residual = 1.34773e-05, No Iterations 5
DILUPBiCGStab:  Solving for Uz, Initial residual = 0.959462, Final residual = 5.47262e-05, No Iterations 5
linear solve U 63731
nonePBiCGStab:  Solving for p, Initial residual = 0.502788, Final residual = 6.15765e-05, No Iterations 263
linear solve p 489027
time step continuity errors : sum local = 9.85614e-08, global = 8.12291e-22, cumulative = 1.69249e-22
nonePBiCGStab:  Solving for p, Initial residual = 0.412143, Final residual = 9.49143e-05, No Iterations 258
linear solve p 469212
time step continuity errors : sum local = 1.57666e-07, global = 1.13918e-21, cumulative = 1.30843e-21
ExecutionTime = 2.61 s  ClockTime = 3 s

Time = 0.003

Courant Number mean: 0.0369621 max: 0.35813
DILUPBiCGStab:  Solving for Ux, Initial residual = 0.0595902, Final residual = 3.42843e-06, No Iterations 5
DILUPBiCGStab:  Solving for Uy, Initial residual = 0.10196, Final residual = 2.38897e-06, No Iterations 5
DILUPBiCGStab:  Solving for Uz, Initial residual = 0.149248, Final residual = 8.30491e-06, No Iterations 5
linear solve U 63587
nonePBiCGStab:  Solving for p, Initial residual = 0.23105, Final residual = 9.04057e-05, No Iterations 247
linear solve p 446851
time step continuity errors : sum local = 1.09793e-07, global = -3.97924e-21, cumulative = -2.67081e-21
nonePBiCGStab:  Solving for p, Initial residual = 0.186598, Final residual = 9.57003e-05, No Iterations 108
linear solve p 200388
time step continuity errors : sum local = 1.02072e-07, global = -6.3864e-21, cumulative = -9.05721e-21
ExecutionTime = 3.35 s  ClockTime = 4 s

Time = 0.004

Courant Number mean: 0.0442728 max: 0.378745
DILUPBiCGStab:  Solving for Ux, Initial residual = 0.0352406, Final residual = 8.29824e-07, No Iterations 5
DILUPBiCGStab:  Solving for Uy, Initial residual = 0.0646967, Final residual = 1.40398e-06, No Iterations 5
DILUPBiCGStab:  Solving for Uz, Initial residual = 0.115115, Final residual = 4.261e-06, No Iterations 5
linear solve U 62290
nonePBiCGStab:  Solving for p, Initial residual = 0.111393, Final residual = 9.7906e-05, No Iterations 96
linear solve p 175497
time step continuity errors : sum local = 7.16336e-08, global = -2.92831e-21, cumulative = -1.19855e-20
nonePBiCGStab:  Solving for p, Initial residual = 0.0878662, Final residual = 9.93693e-05, No Iterations 91
linear solve p 167913
time step continuity errors : sum local = 7.80254e-08, global = 1.2496e-20, cumulative = 5.10474e-22
ExecutionTime = 3.79 s  ClockTime = 4 s

Time = 0.005

Courant Number mean: 0.0495664 max: 0.38868
DILUPBiCGStab:  Solving for Ux, Initial residual = 0.0245302, Final residual = 2.72346e-07, No Iterations 5
DILUPBiCGStab:  Solving for Uy, Initial residual = 0.0450301, Final residual = 7.84567e-07, No Iterations 5
DILUPBiCGStab:  Solving for Uz, Initial residual = 0.0779134, Final residual = 1.76436e-06, No Iterations 5
linear solve U 64030
nonePBiCGStab:  Solving for p, Initial residual = 0.0551259, Final residual = 9.57176e-05, No Iterations 92
linear solve p 168116
time step continuity errors : sum local = 9.2086e-08, global = -1.02846e-20, cumulative = -9.77415e-21
nonePBiCGStab:  Solving for p, Initial residual = 0.0453422, Final residual = 8.43572e-05, No Iterations 93
linear solve p 169400
time step continuity errors : sum local = 7.92551e-08, global = -2.29148e-20, cumulative = -3.26889e-20
ExecutionTime = 4.23 s  ClockTime = 5 s

Time = 0.006

Courant Number mean: 0.0537205 max: 0.394646
DILUPBiCGStab:  Solving for Ux, Initial residual = 0.0186684, Final residual = 1.46073e-07, No Iterations 5
DILUPBiCGStab:  Solving for Uy, Initial residual = 0.0343825, Final residual = 3.22292e-07, No Iterations 5
DILUPBiCGStab:  Solving for Uz, Initial residual = 0.0603819, Final residual = 9.79887e-07, No Iterations 5
linear solve U 62495
nonePBiCGStab:  Solving for p, Initial residual = 0.0354527, Final residual = 3.37681e-05, No Iterations 90
linear solve p 164378
time step continuity errors : sum local = 2.70002e-08, global = -2.22921e-21, cumulative = -3.49181e-20
nonePBiCGStab:  Solving for p, Initial residual = 0.0293529, Final residual = 8.49051e-05, No Iterations 87
linear solve p 158079
time step continuity errors : sum local = 7.00763e-08, global = -5.18027e-21, cumulative = -4.00984e-20
ExecutionTime = 4.64 s  ClockTime = 5 s

Time = 0.007

Courant Number mean: 0.0570774 max: 0.398758
DILUPBiCGStab:  Solving for Ux, Initial residual = 0.0148593, Final residual = 9.54934e-08, No Iterations 5
DILUPBiCGStab:  Solving for Uy, Initial residual = 0.0275535, Final residual = 2.1736e-07, No Iterations 5
DILUPBiCGStab:  Solving for Uz, Initial residual = 0.0487977, Final residual = 6.13181e-07, No Iterations 5
linear solve U 63147
nonePBiCGStab:  Solving for p, Initial residual = 0.0260251, Final residual = 9.69867e-05, No Iterations 89
linear solve p 163754
time step continuity errors : sum local = 8.20339e-08, global = -1.13512e-21, cumulative = -4.12335e-20
nonePBiCGStab:  Solving for p, Initial residual = 0.0222134, Final residual = 9.65081e-05, No Iterations 90
linear solve p 165052
time step continuity errors : sum local = 8.0352e-08, global = -2.5151e-20, cumulative = -6.63845e-20
ExecutionTime = 5.07 s  ClockTime = 5 s

Time = 0.008

Courant Number mean: 0.0599089 max: 0.401787
DILUPBiCGStab:  Solving for Ux, Initial residual = 0.0122005, Final residual = 7.63694e-08, No Iterations 5
DILUPBiCGStab:  Solving for Uy, Initial residual = 0.02285, Final residual = 1.12646e-07, No Iterations 5
DILUPBiCGStab:  Solving for Uz, Initial residual = 0.0414079, Final residual = 4.03065e-07, No Iterations 5
linear solve U 62378
nonePBiCGStab:  Solving for p, Initial residual = 0.0199979, Final residual = 7.43421e-05, No Iterations 90
linear solve p 165474
time step continuity errors : sum local = 5.92123e-08, global = -8.16158e-21, cumulative = -7.45461e-20
nonePBiCGStab:  Solving for p, Initial residual = 0.0173371, Final residual = 9.27066e-05, No Iterations 87
linear solve p 161341
time step continuity errors : sum local = 7.46552e-08, global = -3.53238e-21, cumulative = -7.80785e-20
ExecutionTime = 5.49 s  ClockTime = 6 s

Time = 0.009

Courant Number mean: 0.0623358 max: 0.404134
DILUPBiCGStab:  Solving for Ux, Initial residual = 0.0102536, Final residual = 6.11043e-08, No Iterations 5
DILUPBiCGStab:  Solving for Uy, Initial residual = 0.0193242, Final residual = 8.92044e-08, No Iterations 5
DILUPBiCGStab:  Solving for Uz, Initial residual = 0.0352106, Final residual = 3.00154e-07, No Iterations 5
linear solve U 62128
nonePBiCGStab:  Solving for p, Initial residual = 0.016535, Final residual = 8.3683e-05, No Iterations 82
linear solve p 151723
time step continuity errors : sum local = 7.0484e-08, global = -2.90469e-20, cumulative = -1.07125e-19
nonePBiCGStab:  Solving for p, Initial residual = 0.0144747, Final residual = 9.58256e-05, No Iterations 84
linear solve p 154110
time step continuity errors : sum local = 7.72595e-08, global = 1.62231e-20, cumulative = -9.09023e-20
ExecutionTime = 5.9 s  ClockTime = 6 s

Time = 0.01

Courant Number mean: 0.0644314 max: 0.406009
DILUPBiCGStab:  Solving for Ux, Initial residual = 0.00876865, Final residual = 5.32986e-08, No Iterations 5
DILUPBiCGStab:  Solving for Uy, Initial residual = 0.0166141, Final residual = 6.3547e-08, No Iterations 5
DILUPBiCGStab:  Solving for Uz, Initial residual = 0.0307026, Final residual = 2.24964e-07, No Iterations 5
linear solve U 63107
nonePBiCGStab:  Solving for p, Initial residual = 0.0139066, Final residual = 9.60524e-05, No Iterations 87
linear solve p 160746
time step continuity errors : sum local = 7.35327e-08, global = 9.94214e-21, cumulative = -8.09602e-20
nonePBiCGStab:  Solving for p, Initial residual = 0.0122117, Final residual = 9.07104e-05, No Iterations 87
linear solve p 160441
time step continuity errors : sum local = 7.25225e-08, global = 2.06983e-21, cumulative = -7.88904e-20
ExecutionTime = 6.31 s  ClockTime = 7 s

End

