/*---------------------------------------------------------------------------*\
  =========                 |
  \\      /  F ield         | OpenFOAM: The Open Source CFD Toolbox
   \\    /   O peration     | Website:  https://openfoam.org
    \\  /    A nd           | Version:  8
     \\/     M anipulation  |
\*---------------------------------------------------------------------------*/
Build  : 8-ef60d22ea792
Exec   : icoFoam
Date   : Jul 29 2021
Time   : 08:03:14
Host   : "nla-gpu2.ianm.kit.edu"
PID    : 1971679
I/O    : uncollated
Case   : /home/greole/code/OBR/lidDrivenCavity3D/Variation_mesh/15/Variation_matrix_solver/CG_NoPrecond_HIP/base
nProcs : 1
sigFpe : Enabling floating point exception trapping (FOAM_SIGFPE).
fileModificationChecking : Monitoring run-time modified files using timeStampMaster (fileModificationSkew 10)
allowSystemOperations : Allowing user-supplied system call operations

// * * * * * * * * * * * * * * * * * * * * * * * * * * * * * * * * * * * * * //
Create time

Create mesh for time = 0

Reading transportProperties

Reading field p

Reading field U

Reading/calculating face flux field phi


Starting time loop

Time = 0.001

Courant Number mean: 0 max: 0
DILUPBiCGStab:  Solving for Ux, Initial residual = 1, Final residual = 1.1028e-13, No Iterations 5
DILUPBiCGStab:  Solving for Uy:  solution singularity
DILUPBiCGStab:  Solving for Uz:  solution singularity
linear solve U 1255
[OGL LOG] init_host_sparsity_pattern : 2 ms
[OGL LOG] matrix not stored update host matrix
[OGL LOG] update_host_mtx : 0 ms
[OGL LOG] matrix is not yet sorted, compute sorting idxs
[OGL LOG] compute_sort : 22 ms
[OGL LOG] matrix is not yet sorted, sorting host matrix
[OGL LOG] sort_host_mtx_sparsity_pattern : 0 ms
[OGL LOG] sort_host_mtx : 0 ms
[OGL LOG] init_preconditioner : 0 ms
[OGL LOG] solve : 40 ms
nonehipGKOCG:  Solving for p, Initial residual = 1, Final residual = 7.86493e-05, No Iterations 111
linear solve p 480201
time step continuity errors : sum local = 3.30156e-08, global = -2.67334e-21, cumulative = -2.67334e-21
[OGL LOG] init_host_sparsity_pattern : 1 ms
[OGL LOG] matrix not stored update host matrix
[OGL LOG] update_host_mtx : 0 ms
[OGL LOG] matrix is not yet sorted, sorting host matrix
[OGL LOG] sort_host_mtx_sparsity_pattern : 0 ms
[OGL LOG] sort_host_mtx : 0 ms
[OGL LOG] init_preconditioner : 0 ms
[OGL LOG] solve : 12 ms
nonehipGKOCG:  Solving for p, Initial residual = 0.316802, Final residual = 9.21898e-05, No Iterations 105
linear solve p 16019
time step continuity errors : sum local = 6.77707e-08, global = 1.43005e-21, cumulative = -1.24329e-21
ExecutionTime = 0.61 s  ClockTime = 1 s

Time = 0.002

Courant Number mean: 0.0055944 max: 0.0357002
DILUPBiCGStab:  Solving for Ux, Initial residual = 0.242392, Final residual = 1.13973e-14, No Iterations 5
DILUPBiCGStab:  Solving for Uy, Initial residual = 0.296209, Final residual = 1.1243e-14, No Iterations 5
DILUPBiCGStab:  Solving for Uz, Initial residual = 0.685355, Final residual = 3.43272e-14, No Iterations 5
linear solve U 2142
[OGL LOG] init_host_sparsity_pattern : 1 ms
[OGL LOG] matrix not stored update host matrix
[OGL LOG] update_host_mtx : 0 ms
[OGL LOG] matrix is not yet sorted, sorting host matrix
[OGL LOG] sort_host_mtx_sparsity_pattern : 0 ms
[OGL LOG] sort_host_mtx : 0 ms
[OGL LOG] init_preconditioner : 0 ms
[OGL LOG] solve : 11 ms
nonehipGKOCG:  Solving for p, Initial residual = 0.156983, Final residual = 8.61734e-05, No Iterations 102
linear solve p 15450
time step continuity errors : sum local = 6.18294e-08, global = -4.23083e-21, cumulative = -5.47412e-21
[OGL LOG] init_host_sparsity_pattern : 1 ms
[OGL LOG] matrix not stored update host matrix
[OGL LOG] update_host_mtx : 0 ms
[OGL LOG] matrix is not yet sorted, sorting host matrix
[OGL LOG] sort_host_mtx_sparsity_pattern : 0 ms
[OGL LOG] sort_host_mtx : 0 ms
[OGL LOG] init_preconditioner : 0 ms
[OGL LOG] solve : 11 ms
nonehipGKOCG:  Solving for p, Initial residual = 0.0605768, Final residual = 7.86458e-05, No Iterations 97
linear solve p 14870
time step continuity errors : sum local = 6.13387e-08, global = 4.54929e-21, cumulative = -9.24833e-22
ExecutionTime = 0.66 s  ClockTime = 1 s

Time = 0.003

Courant Number mean: 0.00940318 max: 0.0587296
DILUPBiCGStab:  Solving for Ux, Initial residual = 0.117973, Final residual = 5.3438e-15, No Iterations 5
DILUPBiCGStab:  Solving for Uy, Initial residual = 0.148717, Final residual = 5.34839e-15, No Iterations 5
DILUPBiCGStab:  Solving for Uz, Initial residual = 0.318995, Final residual = 1.46959e-14, No Iterations 5
linear solve U 2173
[OGL LOG] init_host_sparsity_pattern : 1 ms
[OGL LOG] matrix not stored update host matrix
[OGL LOG] update_host_mtx : 0 ms
[OGL LOG] matrix is not yet sorted, sorting host matrix
[OGL LOG] sort_host_mtx_sparsity_pattern : 0 ms
[OGL LOG] sort_host_mtx : 0 ms
[OGL LOG] init_preconditioner : 0 ms
[OGL LOG] solve : 11 ms
nonehipGKOCG:  Solving for p, Initial residual = 0.0758742, Final residual = 7.60859e-05, No Iterations 99
linear solve p 15076
time step continuity errors : sum local = 6.10608e-08, global = 2.57894e-21, cumulative = 1.65411e-21
[OGL LOG] init_host_sparsity_pattern : 1 ms
[OGL LOG] matrix not stored update host matrix
[OGL LOG] update_host_mtx : 0 ms
[OGL LOG] matrix is not yet sorted, sorting host matrix
[OGL LOG] sort_host_mtx_sparsity_pattern : 0 ms
[OGL LOG] sort_host_mtx : 0 ms
[OGL LOG] init_preconditioner : 0 ms
[OGL LOG] solve : 14 ms
nonehipGKOCG:  Solving for p, Initial residual = 0.0340604, Final residual = 9.33076e-05, No Iterations 95
linear solve p 17900
time step continuity errors : sum local = 7.82241e-08, global = 6.04007e-21, cumulative = 7.69418e-21
ExecutionTime = 0.72 s  ClockTime = 1 s

Time = 0.004

Courant Number mean: 0.0121906 max: 0.0737268
DILUPBiCGStab:  Solving for Ux, Initial residual = 0.0723349, Final residual = 2.98994e-15, No Iterations 5
DILUPBiCGStab:  Solving for Uy, Initial residual = 0.0916584, Final residual = 3.02127e-15, No Iterations 5
DILUPBiCGStab:  Solving for Uz, Initial residual = 0.18237, Final residual = 7.94726e-15, No Iterations 5
linear solve U 2177
[OGL LOG] init_host_sparsity_pattern : 1 ms
[OGL LOG] matrix not stored update host matrix
[OGL LOG] update_host_mtx : 0 ms
[OGL LOG] matrix is not yet sorted, sorting host matrix
[OGL LOG] sort_host_mtx_sparsity_pattern : 0 ms
[OGL LOG] sort_host_mtx : 0 ms
[OGL LOG] init_preconditioner : 0 ms
[OGL LOG] solve : 14 ms
nonehipGKOCG:  Solving for p, Initial residual = 0.0491882, Final residual = 7.41712e-05, No Iterations 98
linear solve p 18154
time step continuity errors : sum local = 6.32728e-08, global = -3.0944e-20, cumulative = -2.32498e-20
[OGL LOG] init_host_sparsity_pattern : 1 ms
[OGL LOG] matrix not stored update host matrix
[OGL LOG] update_host_mtx : 0 ms
[OGL LOG] matrix is not yet sorted, sorting host matrix
[OGL LOG] sort_host_mtx_sparsity_pattern : 0 ms
[OGL LOG] sort_host_mtx : 0 ms
[OGL LOG] init_preconditioner : 0 ms
[OGL LOG] solve : 13 ms
nonehipGKOCG:  Solving for p, Initial residual = 0.0220846, Final residual = 9.48722e-05, No Iterations 94
linear solve p 17457
time step continuity errors : sum local = 8.30204e-08, global = 7.16028e-22, cumulative = -2.25338e-20
ExecutionTime = 0.78 s  ClockTime = 1 s

Time = 0.005

Courant Number mean: 0.014306 max: 0.0838051
DILUPBiCGStab:  Solving for Ux, Initial residual = 0.0485641, Final residual = 1.79907e-15, No Iterations 5
DILUPBiCGStab:  Solving for Uy, Initial residual = 0.0627378, Final residual = 1.74762e-15, No Iterations 5
DILUPBiCGStab:  Solving for Uz, Initial residual = 0.129708, Final residual = 5.47689e-15, No Iterations 5
linear solve U 2140
[OGL LOG] init_host_sparsity_pattern : 1 ms
[OGL LOG] matrix not stored update host matrix
[OGL LOG] update_host_mtx : 0 ms
[OGL LOG] matrix is not yet sorted, sorting host matrix
[OGL LOG] sort_host_mtx_sparsity_pattern : 0 ms
[OGL LOG] sort_host_mtx : 0 ms
[OGL LOG] init_preconditioner : 0 ms
[OGL LOG] solve : 14 ms
nonehipGKOCG:  Solving for p, Initial residual = 0.0359266, Final residual = 8.83181e-05, No Iterations 97
linear solve p 18047
time step continuity errors : sum local = 7.8312e-08, global = -1.93203e-20, cumulative = -4.1854e-20
[OGL LOG] init_host_sparsity_pattern : 1 ms
[OGL LOG] matrix not stored update host matrix
[OGL LOG] update_host_mtx : 0 ms
[OGL LOG] matrix is not yet sorted, sorting host matrix
[OGL LOG] sort_host_mtx_sparsity_pattern : 0 ms
[OGL LOG] sort_host_mtx : 0 ms
[OGL LOG] init_preconditioner : 0 ms
[OGL LOG] solve : 13 ms
nonehipGKOCG:  Solving for p, Initial residual = 0.0152371, Final residual = 9.72465e-05, No Iterations 93
linear solve p 17428
time step continuity errors : sum local = 8.77684e-08, global = -9.71724e-22, cumulative = -4.28258e-20
ExecutionTime = 0.84 s  ClockTime = 1 s

Time = 0.006

Courant Number mean: 0.0159484 max: 0.0908032
DILUPBiCGStab:  Solving for Ux, Initial residual = 0.0353494, Final residual = 1.17443e-15, No Iterations 5
DILUPBiCGStab:  Solving for Uy, Initial residual = 0.0460978, Final residual = 1.06313e-15, No Iterations 5
DILUPBiCGStab:  Solving for Uz, Initial residual = 0.0994178, Final residual = 3.99472e-15, No Iterations 5
linear solve U 2144
[OGL LOG] init_host_sparsity_pattern : 1 ms
[OGL LOG] matrix not stored update host matrix
[OGL LOG] update_host_mtx : 0 ms
[OGL LOG] matrix is not yet sorted, sorting host matrix
[OGL LOG] sort_host_mtx_sparsity_pattern : 0 ms
[OGL LOG] sort_host_mtx : 0 ms
[OGL LOG] init_preconditioner : 0 ms
[OGL LOG] solve : 13 ms
nonehipGKOCG:  Solving for p, Initial residual = 0.0288199, Final residual = 7.57234e-05, No Iterations 97
linear solve p 17879
time step continuity errors : sum local = 6.93588e-08, global = -1.05414e-22, cumulative = -4.29312e-20
[OGL LOG] init_host_sparsity_pattern : 1 ms
[OGL LOG] matrix not stored update host matrix
[OGL LOG] update_host_mtx : 0 ms
[OGL LOG] matrix is not yet sorted, sorting host matrix
[OGL LOG] sort_host_mtx_sparsity_pattern : 0 ms
[OGL LOG] sort_host_mtx : 0 ms
[OGL LOG] init_preconditioner : 0 ms
[OGL LOG] solve : 13 ms
nonehipGKOCG:  Solving for p, Initial residual = 0.0110072, Final residual = 9.56884e-05, No Iterations 92
linear solve p 17225
time step continuity errors : sum local = 8.90373e-08, global = -1.5686e-20, cumulative = -5.86172e-20
ExecutionTime = 0.9 s  ClockTime = 1 s

Time = 0.007

Courant Number mean: 0.0172719 max: 0.0958251
DILUPBiCGStab:  Solving for Ux, Initial residual = 0.0271631, Final residual = 8.70861e-16, No Iterations 5
DILUPBiCGStab:  Solving for Uy, Initial residual = 0.0356267, Final residual = 7.40822e-16, No Iterations 5
DILUPBiCGStab:  Solving for Uz, Initial residual = 0.0794112, Final residual = 3.11964e-15, No Iterations 5
linear solve U 2146
[OGL LOG] init_host_sparsity_pattern : 1 ms
[OGL LOG] matrix not stored update host matrix
[OGL LOG] update_host_mtx : 0 ms
[OGL LOG] matrix is not yet sorted, sorting host matrix
[OGL LOG] sort_host_mtx_sparsity_pattern : 0 ms
[OGL LOG] sort_host_mtx : 0 ms
[OGL LOG] init_preconditioner : 0 ms
[OGL LOG] solve : 13 ms
nonehipGKOCG:  Solving for p, Initial residual = 0.0217461, Final residual = 9.43027e-05, No Iterations 96
linear solve p 17839
time step continuity errors : sum local = 8.85338e-08, global = 1.18388e-20, cumulative = -4.67784e-20
[OGL LOG] init_host_sparsity_pattern : 1 ms
[OGL LOG] matrix not stored update host matrix
[OGL LOG] update_host_mtx : 0 ms
[OGL LOG] matrix is not yet sorted, sorting host matrix
[OGL LOG] sort_host_mtx_sparsity_pattern : 0 ms
[OGL LOG] sort_host_mtx : 0 ms
[OGL LOG] init_preconditioner : 0 ms
[OGL LOG] solve : 6 ms
nonehipGKOCG:  Solving for p, Initial residual = 0.0086004, Final residual = 9.77575e-05, No Iterations 40
linear solve p 9896
time step continuity errors : sum local = 1.1843e-07, global = 1.04724e-20, cumulative = -3.6306e-20
ExecutionTime = 0.95 s  ClockTime = 1 s

Time = 0.008

Courant Number mean: 0.0183554 max: 0.0995502
DILUPBiCGStab:  Solving for Ux, Initial residual = 0.0216524, Final residual = 6.3904e-16, No Iterations 5
DILUPBiCGStab:  Solving for Uy, Initial residual = 0.0286205, Final residual = 5.78746e-16, No Iterations 5
DILUPBiCGStab:  Solving for Uz, Initial residual = 0.0649401, Final residual = 2.48998e-15, No Iterations 5
linear solve U 2148
[OGL LOG] init_host_sparsity_pattern : 1 ms
[OGL LOG] matrix not stored update host matrix
[OGL LOG] update_host_mtx : 0 ms
[OGL LOG] matrix is not yet sorted, sorting host matrix
[OGL LOG] sort_host_mtx_sparsity_pattern : 0 ms
[OGL LOG] sort_host_mtx : 0 ms
[OGL LOG] init_preconditioner : 0 ms
[OGL LOG] solve : 6 ms
nonehipGKOCG:  Solving for p, Initial residual = 0.0163412, Final residual = 8.30875e-05, No Iterations 44
linear solve p 10541
time step continuity errors : sum local = 8.1364e-08, global = -2.68478e-20, cumulative = -6.31538e-20
[OGL LOG] init_host_sparsity_pattern : 1 ms
[OGL LOG] matrix not stored update host matrix
[OGL LOG] update_host_mtx : 0 ms
[OGL LOG] matrix is not yet sorted, sorting host matrix
[OGL LOG] sort_host_mtx_sparsity_pattern : 0 ms
[OGL LOG] sort_host_mtx : 0 ms
[OGL LOG] init_preconditioner : 0 ms
[OGL LOG] solve : 5 ms
nonehipGKOCG:  Solving for p, Initial residual = 0.00665326, Final residual = 9.72172e-05, No Iterations 38
linear solve p 9616
time step continuity errors : sum local = 1.08358e-07, global = 2.75035e-20, cumulative = -3.56503e-20
ExecutionTime = 0.98 s  ClockTime = 1 s

Time = 0.009

Courant Number mean: 0.0192552 max: 0.102395
DILUPBiCGStab:  Solving for Ux, Initial residual = 0.0176813, Final residual = 4.36954e-16, No Iterations 5
DILUPBiCGStab:  Solving for Uy, Initial residual = 0.0236225, Final residual = 4.83079e-16, No Iterations 5
DILUPBiCGStab:  Solving for Uz, Initial residual = 0.0544313, Final residual = 1.88705e-15, No Iterations 5
linear solve U 2151
[OGL LOG] init_host_sparsity_pattern : 1 ms
[OGL LOG] matrix not stored update host matrix
[OGL LOG] update_host_mtx : 0 ms
[OGL LOG] matrix is not yet sorted, sorting host matrix
[OGL LOG] sort_host_mtx_sparsity_pattern : 0 ms
[OGL LOG] sort_host_mtx : 0 ms
[OGL LOG] init_preconditioner : 0 ms
[OGL LOG] solve : 6 ms
nonehipGKOCG:  Solving for p, Initial residual = 0.0132679, Final residual = 7.83217e-05, No Iterations 43
linear solve p 10409
time step continuity errors : sum local = 9.23545e-08, global = 1.93219e-21, cumulative = -3.37181e-20
[OGL LOG] init_host_sparsity_pattern : 1 ms
[OGL LOG] matrix not stored update host matrix
[OGL LOG] update_host_mtx : 0 ms
[OGL LOG] matrix is not yet sorted, sorting host matrix
[OGL LOG] sort_host_mtx_sparsity_pattern : 0 ms
[OGL LOG] sort_host_mtx : 0 ms
[OGL LOG] init_preconditioner : 0 ms
[OGL LOG] solve : 5 ms
nonehipGKOCG:  Solving for p, Initial residual = 0.00540233, Final residual = 9.85856e-05, No Iterations 36
linear solve p 9300
time step continuity errors : sum local = 1.00297e-07, global = -8.99228e-21, cumulative = -4.27104e-20
ExecutionTime = 1.02 s  ClockTime = 1 s

Time = 0.01

Courant Number mean: 0.0200143 max: 0.104627
DILUPBiCGStab:  Solving for Ux, Initial residual = 0.01473, Final residual = 2.84335e-16, No Iterations 5
DILUPBiCGStab:  Solving for Uy, Initial residual = 0.0199283, Final residual = 4.01646e-16, No Iterations 5
DILUPBiCGStab:  Solving for Uz, Initial residual = 0.0463272, Final residual = 1.54042e-15, No Iterations 5
linear solve U 2151
[OGL LOG] init_host_sparsity_pattern : 1 ms
[OGL LOG] matrix not stored update host matrix
[OGL LOG] update_host_mtx : 0 ms
[OGL LOG] matrix is not yet sorted, sorting host matrix
[OGL LOG] sort_host_mtx_sparsity_pattern : 0 ms
[OGL LOG] sort_host_mtx : 0 ms
[OGL LOG] init_preconditioner : 0 ms
[OGL LOG] solve : 6 ms
nonehipGKOCG:  Solving for p, Initial residual = 0.0111412, Final residual = 9.89066e-05, No Iterations 42
linear solve p 10132
time step continuity errors : sum local = 1.28522e-07, global = 1.17828e-20, cumulative = -3.09276e-20
[OGL LOG] init_host_sparsity_pattern : 1 ms
[OGL LOG] matrix not stored update host matrix
[OGL LOG] update_host_mtx : 0 ms
[OGL LOG] matrix is not yet sorted, sorting host matrix
[OGL LOG] sort_host_mtx_sparsity_pattern : 0 ms
[OGL LOG] sort_host_mtx : 0 ms
[OGL LOG] init_preconditioner : 0 ms
[OGL LOG] solve : 5 ms
nonehipGKOCG:  Solving for p, Initial residual = 0.00450105, Final residual = 8.79728e-05, No Iterations 36
linear solve p 9198
time step continuity errors : sum local = 1.0769e-07, global = -4.9391e-20, cumulative = -8.03185e-20
ExecutionTime = 1.05 s  ClockTime = 1 s

End

