/*---------------------------------------------------------------------------*\
  =========                 |
  \\      /  F ield         | OpenFOAM: The Open Source CFD Toolbox
   \\    /   O peration     | Website:  https://openfoam.org
    \\  /    A nd           | Version:  8
     \\/     M anipulation  |
\*---------------------------------------------------------------------------*/
Build  : 8-14d69e1ee166
Exec   : icoFoam
Date   : Jul 29 2021
Time   : 08:46:03
Host   : "guyot.icl.utk.edu"
PID    : 173735
I/O    : uncollated
Case   : /home/greole/code/OBR/lidDrivenCavity3D/Variation_mesh/30/Variation_matrix_solver/BiCGStab_BJ_CUDA/base
nProcs : 1
sigFpe : Enabling floating point exception trapping (FOAM_SIGFPE).
fileModificationChecking : Monitoring run-time modified files using timeStampMaster (fileModificationSkew 10)
allowSystemOperations : Allowing user-supplied system call operations

// * * * * * * * * * * * * * * * * * * * * * * * * * * * * * * * * * * * * * //
Create time

Create mesh for time = 0

Reading transportProperties

Reading field p

Reading field U

Reading/calculating face flux field phi


Starting time loop

Time = 0.001

Courant Number mean: 0 max: 0
DILUPBiCGStab:  Solving for Ux, Initial residual = 1, Final residual = 2.30612e-07, No Iterations 5
DILUPBiCGStab:  Solving for Uy:  solution singularity
DILUPBiCGStab:  Solving for Uz:  solution singularity
linear solve U 9505
[OGL LOG] init_host_sparsity_pattern : 12 ms
[OGL LOG] matrix not stored update host matrix
[OGL LOG] update_host_mtx : 5 ms
[OGL LOG] matrix is not yet sorted, compute sorting idxs
[OGL LOG] compute_sort : 224 ms
[OGL LOG] matrix is not yet sorted, sorting host matrix
[OGL LOG] sort_host_mtx_sparsity_pattern : 4 ms
[OGL LOG] sort_host_mtx : 3 ms
[OGL LOG] init_preconditioner : 5 ms
[OGL LOG] solve : 67 ms
BJcudaGKOBiCGStab:  Solving for p, Initial residual = 1, Final residual = 4.95311e-05, No Iterations 154
linear solve p 1953503
time step continuity errors : sum local = 5.32435e-08, global = 1.25405e-20, cumulative = 1.25405e-20
[OGL LOG] init_host_sparsity_pattern : 11 ms
[OGL LOG] matrix not stored update host matrix
[OGL LOG] update_host_mtx : 6 ms
[OGL LOG] matrix is not yet sorted, sorting host matrix
[OGL LOG] sort_host_mtx_sparsity_pattern : 4 ms
[OGL LOG] sort_host_mtx : 2 ms
[OGL LOG] init_preconditioner : 0 ms
[OGL LOG] solve : 62 ms
BJcudaGKOBiCGStab:  Solving for p, Initial residual = 0.53366, Final residual = 7.24216e-05, No Iterations 142
linear solve p 90631
time step continuity errors : sum local = 1.21643e-07, global = -3.5271e-21, cumulative = 9.01337e-21
ExecutionTime = 2.23 s  ClockTime = 2 s

Time = 0.002

Courant Number mean: 0.0151364 max: 0.148265
DILUPBiCGStab:  Solving for Ux, Initial residual = 0.196062, Final residual = 3.64394e-08, No Iterations 5
DILUPBiCGStab:  Solving for Uy, Initial residual = 0.280353, Final residual = 4.07919e-08, No Iterations 5
DILUPBiCGStab:  Solving for Uz, Initial residual = 0.915947, Final residual = 1.59692e-07, No Iterations 5
linear solve U 17607
[OGL LOG] init_host_sparsity_pattern : 11 ms
[OGL LOG] matrix not stored update host matrix
[OGL LOG] update_host_mtx : 5 ms
[OGL LOG] matrix is not yet sorted, sorting host matrix
[OGL LOG] sort_host_mtx_sparsity_pattern : 4 ms
[OGL LOG] sort_host_mtx : 2 ms
[OGL LOG] init_preconditioner : 0 ms
[OGL LOG] solve : 58 ms
BJcudaGKOBiCGStab:  Solving for p, Initial residual = 0.353094, Final residual = 9.74556e-05, No Iterations 134
linear solve p 86443
time step continuity errors : sum local = 1.53229e-07, global = 1.6767e-21, cumulative = 1.06901e-20
[OGL LOG] init_host_sparsity_pattern : 11 ms
[OGL LOG] matrix not stored update host matrix
[OGL LOG] update_host_mtx : 5 ms
[OGL LOG] matrix is not yet sorted, sorting host matrix
[OGL LOG] sort_host_mtx_sparsity_pattern : 4 ms
[OGL LOG] sort_host_mtx : 2 ms
[OGL LOG] init_preconditioner : 0 ms
[OGL LOG] solve : 56 ms
BJcudaGKOBiCGStab:  Solving for p, Initial residual = 0.254186, Final residual = 9.442e-05, No Iterations 130
linear solve p 84887
time step continuity errors : sum local = 1.53414e-07, global = -1.76582e-21, cumulative = 8.92424e-21
ExecutionTime = 2.43 s  ClockTime = 2 s

Time = 0.003

Courant Number mean: 0.0235105 max: 0.204198
DILUPBiCGStab:  Solving for Ux, Initial residual = 0.0795106, Final residual = 1.29893e-08, No Iterations 5
DILUPBiCGStab:  Solving for Uy, Initial residual = 0.116505, Final residual = 1.13652e-08, No Iterations 5
DILUPBiCGStab:  Solving for Uz, Initial residual = 0.221201, Final residual = 4.37115e-08, No Iterations 5
linear solve U 18008
[OGL LOG] init_host_sparsity_pattern : 11 ms
[OGL LOG] matrix not stored update host matrix
[OGL LOG] update_host_mtx : 5 ms
[OGL LOG] matrix is not yet sorted, sorting host matrix
[OGL LOG] sort_host_mtx_sparsity_pattern : 4 ms
[OGL LOG] sort_host_mtx : 2 ms
[OGL LOG] init_preconditioner : 0 ms
[OGL LOG] solve : 34 ms
BJcudaGKOBiCGStab:  Solving for p, Initial residual = 0.113345, Final residual = 9.89159e-05, No Iterations 78
linear solve p 62791
time step continuity errors : sum local = 1.34357e-07, global = 3.98556e-21, cumulative = 1.29098e-20
[OGL LOG] init_host_sparsity_pattern : 11 ms
[OGL LOG] matrix not stored update host matrix
[OGL LOG] update_host_mtx : 5 ms
[OGL LOG] matrix is not yet sorted, sorting host matrix
[OGL LOG] sort_host_mtx_sparsity_pattern : 4 ms
[OGL LOG] sort_host_mtx : 2 ms
[OGL LOG] init_preconditioner : 0 ms
[OGL LOG] solve : 56 ms
BJcudaGKOBiCGStab:  Solving for p, Initial residual = 0.0838579, Final residual = 8.43847e-05, No Iterations 129
linear solve p 84629
time step continuity errors : sum local = 9.05038e-08, global = 1.59013e-20, cumulative = 2.88111e-20
ExecutionTime = 2.6 s  ClockTime = 2 s

Time = 0.004

Courant Number mean: 0.0286421 max: 0.226394
DILUPBiCGStab:  Solving for Ux, Initial residual = 0.0460824, Final residual = 6.35893e-09, No Iterations 5
DILUPBiCGStab:  Solving for Uy, Initial residual = 0.0699601, Final residual = 4.3352e-09, No Iterations 5
DILUPBiCGStab:  Solving for Uz, Initial residual = 0.113753, Final residual = 1.42571e-08, No Iterations 5
linear solve U 17660
[OGL LOG] init_host_sparsity_pattern : 11 ms
[OGL LOG] matrix not stored update host matrix
[OGL LOG] update_host_mtx : 5 ms
[OGL LOG] matrix is not yet sorted, sorting host matrix
[OGL LOG] sort_host_mtx_sparsity_pattern : 4 ms
[OGL LOG] sort_host_mtx : 2 ms
[OGL LOG] init_preconditioner : 0 ms
[OGL LOG] solve : 27 ms
BJcudaGKOBiCGStab:  Solving for p, Initial residual = 0.0572613, Final residual = 9.99889e-05, No Iterations 62
linear solve p 55954
time step continuity errors : sum local = 1.40959e-07, global = 1.77368e-20, cumulative = 4.65479e-20
[OGL LOG] init_host_sparsity_pattern : 11 ms
[OGL LOG] matrix not stored update host matrix
[OGL LOG] update_host_mtx : 5 ms
[OGL LOG] matrix is not yet sorted, sorting host matrix
[OGL LOG] sort_host_mtx_sparsity_pattern : 4 ms
[OGL LOG] sort_host_mtx : 2 ms
[OGL LOG] init_preconditioner : 0 ms
[OGL LOG] solve : 23 ms
BJcudaGKOBiCGStab:  Solving for p, Initial residual = 0.0420789, Final residual = 9.0356e-05, No Iterations 52
linear solve p 51484
time step continuity errors : sum local = 8.52831e-08, global = -1.7365e-20, cumulative = 2.91829e-20
ExecutionTime = 2.74 s  ClockTime = 2 s

Time = 0.005

Courant Number mean: 0.0323428 max: 0.237405
DILUPBiCGStab:  Solving for Ux, Initial residual = 0.0313982, Final residual = 2.99412e-09, No Iterations 5
DILUPBiCGStab:  Solving for Uy, Initial residual = 0.0483029, Final residual = 2.4202e-09, No Iterations 5
DILUPBiCGStab:  Solving for Uz, Initial residual = 0.08093, Final residual = 8.04815e-09, No Iterations 5
linear solve U 17604
[OGL LOG] init_host_sparsity_pattern : 11 ms
[OGL LOG] matrix not stored update host matrix
[OGL LOG] update_host_mtx : 5 ms
[OGL LOG] matrix is not yet sorted, sorting host matrix
[OGL LOG] sort_host_mtx_sparsity_pattern : 4 ms
[OGL LOG] sort_host_mtx : 2 ms
[OGL LOG] init_preconditioner : 0 ms
[OGL LOG] solve : 24 ms
BJcudaGKOBiCGStab:  Solving for p, Initial residual = 0.0357857, Final residual = 9.23003e-05, No Iterations 54
linear solve p 52682
time step continuity errors : sum local = 1.00015e-07, global = -4.60522e-21, cumulative = 2.45777e-20
[OGL LOG] init_host_sparsity_pattern : 11 ms
[OGL LOG] matrix not stored update host matrix
[OGL LOG] update_host_mtx : 5 ms
[OGL LOG] matrix is not yet sorted, sorting host matrix
[OGL LOG] sort_host_mtx_sparsity_pattern : 4 ms
[OGL LOG] sort_host_mtx : 2 ms
[OGL LOG] init_preconditioner : 0 ms
[OGL LOG] solve : 21 ms
BJcudaGKOBiCGStab:  Solving for p, Initial residual = 0.0265626, Final residual = 8.47627e-05, No Iterations 47
linear solve p 49515
time step continuity errors : sum local = 8.27948e-08, global = 2.67901e-20, cumulative = 5.13678e-20
ExecutionTime = 2.87 s  ClockTime = 3 s

Time = 0.006

Courant Number mean: 0.0352087 max: 0.243905
DILUPBiCGStab:  Solving for Ux, Initial residual = 0.0234635, Final residual = 1.11577e-09, No Iterations 5
DILUPBiCGStab:  Solving for Uy, Initial residual = 0.0364646, Final residual = 1.59096e-09, No Iterations 5
DILUPBiCGStab:  Solving for Uz, Initial residual = 0.063726, Final residual = 5.53492e-09, No Iterations 5
linear solve U 17405
[OGL LOG] init_host_sparsity_pattern : 11 ms
[OGL LOG] matrix not stored update host matrix
[OGL LOG] update_host_mtx : 5 ms
[OGL LOG] matrix is not yet sorted, sorting host matrix
[OGL LOG] sort_host_mtx_sparsity_pattern : 4 ms
[OGL LOG] sort_host_mtx : 2 ms
[OGL LOG] init_preconditioner : 0 ms
[OGL LOG] solve : 23 ms
BJcudaGKOBiCGStab:  Solving for p, Initial residual = 0.0253627, Final residual = 9.58132e-05, No Iterations 52
linear solve p 52025
time step continuity errors : sum local = 1.09764e-07, global = 1.11927e-20, cumulative = 6.25605e-20
[OGL LOG] init_host_sparsity_pattern : 11 ms
[OGL LOG] matrix not stored update host matrix
[OGL LOG] update_host_mtx : 5 ms
[OGL LOG] matrix is not yet sorted, sorting host matrix
[OGL LOG] sort_host_mtx_sparsity_pattern : 4 ms
[OGL LOG] sort_host_mtx : 2 ms
[OGL LOG] init_preconditioner : 0 ms
[OGL LOG] solve : 20 ms
BJcudaGKOBiCGStab:  Solving for p, Initial residual = 0.0189683, Final residual = 9.00916e-05, No Iterations 46
linear solve p 48814
time step continuity errors : sum local = 9.32798e-08, global = 2.12861e-20, cumulative = 8.38466e-20
ExecutionTime = 2.99 s  ClockTime = 3 s

Time = 0.007

Courant Number mean: 0.0375053 max: 0.24826
DILUPBiCGStab:  Solving for Ux, Initial residual = 0.0185163, Final residual = 5.58614e-10, No Iterations 5
DILUPBiCGStab:  Solving for Uy, Initial residual = 0.0290095, Final residual = 1.14329e-09, No Iterations 5
DILUPBiCGStab:  Solving for Uz, Initial residual = 0.0525435, Final residual = 3.68769e-09, No Iterations 5
linear solve U 18011
[OGL LOG] init_host_sparsity_pattern : 11 ms
[OGL LOG] matrix not stored update host matrix
[OGL LOG] update_host_mtx : 5 ms
[OGL LOG] matrix is not yet sorted, sorting host matrix
[OGL LOG] sort_host_mtx_sparsity_pattern : 4 ms
[OGL LOG] sort_host_mtx : 2 ms
[OGL LOG] init_preconditioner : 0 ms
[OGL LOG] solve : 22 ms
BJcudaGKOBiCGStab:  Solving for p, Initial residual = 0.0197573, Final residual = 9.98397e-05, No Iterations 50
linear solve p 51375
time step continuity errors : sum local = 1.1165e-07, global = 2.83625e-20, cumulative = 1.12209e-19
[OGL LOG] init_host_sparsity_pattern : 11 ms
[OGL LOG] matrix not stored update host matrix
[OGL LOG] update_host_mtx : 5 ms
[OGL LOG] matrix is not yet sorted, sorting host matrix
[OGL LOG] sort_host_mtx_sparsity_pattern : 4 ms
[OGL LOG] sort_host_mtx : 2 ms
[OGL LOG] init_preconditioner : 0 ms
[OGL LOG] solve : 20 ms
BJcudaGKOBiCGStab:  Solving for p, Initial residual = 0.0149004, Final residual = 9.08641e-05, No Iterations 45
linear solve p 48691
time step continuity errors : sum local = 9.73153e-08, global = 6.84642e-21, cumulative = 1.19056e-19
ExecutionTime = 3.12 s  ClockTime = 3 s

Time = 0.008

Courant Number mean: 0.0393977 max: 0.251424
DILUPBiCGStab:  Solving for Ux, Initial residual = 0.0150873, Final residual = 3.46383e-10, No Iterations 5
DILUPBiCGStab:  Solving for Uy, Initial residual = 0.0238929, Final residual = 8.32183e-10, No Iterations 5
DILUPBiCGStab:  Solving for Uz, Initial residual = 0.0444024, Final residual = 2.37879e-09, No Iterations 5
linear solve U 17403
[OGL LOG] init_host_sparsity_pattern : 11 ms
[OGL LOG] matrix not stored update host matrix
[OGL LOG] update_host_mtx : 5 ms
[OGL LOG] matrix is not yet sorted, sorting host matrix
[OGL LOG] sort_host_mtx_sparsity_pattern : 4 ms
[OGL LOG] sort_host_mtx : 2 ms
[OGL LOG] init_preconditioner : 0 ms
[OGL LOG] solve : 20 ms
BJcudaGKOBiCGStab:  Solving for p, Initial residual = 0.01596, Final residual = 8.71425e-05, No Iterations 44
linear solve p 48371
time step continuity errors : sum local = 1.02965e-07, global = 2.14322e-21, cumulative = 1.21199e-19
[OGL LOG] init_host_sparsity_pattern : 11 ms
[OGL LOG] matrix not stored update host matrix
[OGL LOG] update_host_mtx : 5 ms
[OGL LOG] matrix is not yet sorted, sorting host matrix
[OGL LOG] sort_host_mtx_sparsity_pattern : 4 ms
[OGL LOG] sort_host_mtx : 2 ms
[OGL LOG] init_preconditioner : 0 ms
[OGL LOG] solve : 20 ms
BJcudaGKOBiCGStab:  Solving for p, Initial residual = 0.0120604, Final residual = 9.43527e-05, No Iterations 44
linear solve p 48285
time step continuity errors : sum local = 1.03087e-07, global = 1.46647e-20, cumulative = 1.35863e-19
ExecutionTime = 3.25 s  ClockTime = 3 s

Time = 0.009

Courant Number mean: 0.0410398 max: 0.253855
DILUPBiCGStab:  Solving for Ux, Initial residual = 0.0126256, Final residual = 2.45165e-10, No Iterations 5
DILUPBiCGStab:  Solving for Uy, Initial residual = 0.0201585, Final residual = 6.24438e-10, No Iterations 5
DILUPBiCGStab:  Solving for Uz, Initial residual = 0.0380753, Final residual = 1.567e-09, No Iterations 5
linear solve U 17443
[OGL LOG] init_host_sparsity_pattern : 11 ms
[OGL LOG] matrix not stored update host matrix
[OGL LOG] update_host_mtx : 5 ms
[OGL LOG] matrix is not yet sorted, sorting host matrix
[OGL LOG] sort_host_mtx_sparsity_pattern : 4 ms
[OGL LOG] sort_host_mtx : 2 ms
[OGL LOG] init_preconditioner : 0 ms
[OGL LOG] solve : 22 ms
BJcudaGKOBiCGStab:  Solving for p, Initial residual = 0.0131691, Final residual = 9.33816e-05, No Iterations 49
linear solve p 50367
time step continuity errors : sum local = 1.08227e-07, global = 1.02279e-20, cumulative = 1.46091e-19
[OGL LOG] init_host_sparsity_pattern : 11 ms
[OGL LOG] matrix not stored update host matrix
[OGL LOG] update_host_mtx : 5 ms
[OGL LOG] matrix is not yet sorted, sorting host matrix
[OGL LOG] sort_host_mtx_sparsity_pattern : 4 ms
[OGL LOG] sort_host_mtx : 2 ms
[OGL LOG] init_preconditioner : 0 ms
[OGL LOG] solve : 20 ms
BJcudaGKOBiCGStab:  Solving for p, Initial residual = 0.0100329, Final residual = 9.87308e-05, No Iterations 43
linear solve p 48654
time step continuity errors : sum local = 1.08526e-07, global = -1.32871e-21, cumulative = 1.44763e-19
ExecutionTime = 3.38 s  ClockTime = 3 s

Time = 0.01

Courant Number mean: 0.0424711 max: 0.255787
DILUPBiCGStab:  Solving for Ux, Initial residual = 0.0107651, Final residual = 1.86597e-10, No Iterations 5
DILUPBiCGStab:  Solving for Uy, Initial residual = 0.017287, Final residual = 4.82196e-10, No Iterations 5
DILUPBiCGStab:  Solving for Uz, Initial residual = 0.0331816, Final residual = 1.0815e-09, No Iterations 5
linear solve U 17423
[OGL LOG] init_host_sparsity_pattern : 11 ms
[OGL LOG] matrix not stored update host matrix
[OGL LOG] update_host_mtx : 5 ms
[OGL LOG] matrix is not yet sorted, sorting host matrix
[OGL LOG] sort_host_mtx_sparsity_pattern : 4 ms
[OGL LOG] sort_host_mtx : 2 ms
[OGL LOG] init_preconditioner : 0 ms
[OGL LOG] solve : 21 ms
BJcudaGKOBiCGStab:  Solving for p, Initial residual = 0.0111893, Final residual = 9.69741e-05, No Iterations 46
linear solve p 49427
time step continuity errors : sum local = 1.12333e-07, global = 4.2379e-21, cumulative = 1.49001e-19
[OGL LOG] init_host_sparsity_pattern : 11 ms
[OGL LOG] matrix not stored update host matrix
[OGL LOG] update_host_mtx : 5 ms
[OGL LOG] matrix is not yet sorted, sorting host matrix
[OGL LOG] sort_host_mtx_sparsity_pattern : 4 ms
[OGL LOG] sort_host_mtx : 2 ms
[OGL LOG] init_preconditioner : 0 ms
[OGL LOG] solve : 20 ms
BJcudaGKOBiCGStab:  Solving for p, Initial residual = 0.00857474, Final residual = 9.84493e-05, No Iterations 46
linear solve p 49111
time step continuity errors : sum local = 1.10188e-07, global = -1.34773e-20, cumulative = 1.35523e-19
ExecutionTime = 3.5 s  ClockTime = 3 s

End

