/*---------------------------------------------------------------------------*\
  =========                 |
  \\      /  F ield         | OpenFOAM: The Open Source CFD Toolbox
   \\    /   O peration     | Website:  https://openfoam.org
    \\  /    A nd           | Version:  8
     \\/     M anipulation  |
\*---------------------------------------------------------------------------*/
Build  : 8-ef60d22ea792
Exec   : icoFoam
Date   : Jul 28 2021
Time   : 23:35:54
Host   : "uc2n414.localdomain"
PID    : 2835648
I/O    : uncollated
Case   : /pfs/data5/home/kit/scc/nq7776/code/OBR/lidDrivenCavity3D/Variation_mesh/75/Variation_matrix_solver/CG_BJ_OMP/base
nProcs : 1
sigFpe : Enabling floating point exception trapping (FOAM_SIGFPE).
fileModificationChecking : Monitoring run-time modified files using timeStampMaster (fileModificationSkew 10)
allowSystemOperations : Allowing user-supplied system call operations

// * * * * * * * * * * * * * * * * * * * * * * * * * * * * * * * * * * * * * //
Create time

Create mesh for time = 0

Reading transportProperties

Reading field p

Reading field U

Reading/calculating face flux field phi


Starting time loop

Time = 0.001

Courant Number mean: 0 max: 0
DILUPBiCGStab:  Solving for Ux, Initial residual = 1, Final residual = 0.00209367, No Iterations 5
DILUPBiCGStab:  Solving for Uy:  solution singularity
DILUPBiCGStab:  Solving for Uz:  solution singularity
linear solve U 196725
[OGL LOG] init_host_sparsity_pattern : 120 ms
[OGL LOG] matrix not stored update host matrix
[OGL LOG] update_host_mtx : 65 ms
[OGL LOG] matrix is not yet sorted, compute sorting idxs
[OGL LOG] compute_sort : 3629 ms
[OGL LOG] matrix is not yet sorted, sorting host matrix
[OGL LOG] sort_host_mtx_sparsity_pattern : 87 ms
[OGL LOG] sort_host_mtx : 53 ms
[OGL LOG] init_preconditioner : 113 ms
 CG create  precond 
[OGL LOG] solve : 17825 ms
BJompGKOCG:  Solving for p, Initial residual = 1, Final residual = 9.88733e-05, No Iterations 500
linear solve p 21980454
time step continuity errors : sum local = 5.8119e-08, global = -2.78227e-21, cumulative = -2.78227e-21
[OGL LOG] init_host_sparsity_pattern : 115 ms
[OGL LOG] matrix not stored update host matrix
[OGL LOG] update_host_mtx : 62 ms
[OGL LOG] matrix is not yet sorted, sorting host matrix
[OGL LOG] sort_host_mtx_sparsity_pattern : 86 ms
[OGL LOG] sort_host_mtx : 42 ms
[OGL LOG] init_preconditioner : 0 ms
 CG create  precond 
[OGL LOG] solve : 17163 ms
BJompGKOCG:  Solving for p, Initial residual = 0.735624, Final residual = 9.91496e-05, No Iterations 482
linear solve p 17520383
time step continuity errors : sum local = 7.65922e-08, global = -2.67809e-21, cumulative = -5.46036e-21
ExecutionTime = 41.37 s  ClockTime = 42 s

Time = 0.002

Courant Number mean: 0.0422934 max: 0.566001
DILUPBiCGStab:  Solving for Ux, Initial residual = 0.148658, Final residual = 0.000720405, No Iterations 5
DILUPBiCGStab:  Solving for Uy, Initial residual = 0.373403, Final residual = 0.00156876, No Iterations 5
DILUPBiCGStab:  Solving for Uz, Initial residual = 0.986124, Final residual = 0.00479755, No Iterations 5
linear solve U 382371
[OGL LOG] init_host_sparsity_pattern : 111 ms
[OGL LOG] matrix not stored update host matrix
[OGL LOG] update_host_mtx : 54 ms
[OGL LOG] matrix is not yet sorted, sorting host matrix
[OGL LOG] sort_host_mtx_sparsity_pattern : 86 ms
[OGL LOG] sort_host_mtx : 42 ms
[OGL LOG] init_preconditioner : 0 ms
 CG create  precond 
[OGL LOG] solve : 16869 ms
BJompGKOCG:  Solving for p, Initial residual = 0.699689, Final residual = 9.40218e-05, No Iterations 474
linear solve p 17215779
time step continuity errors : sum local = 8.25099e-08, global = 2.77541e-21, cumulative = -2.68495e-21
[OGL LOG] init_host_sparsity_pattern : 111 ms
[OGL LOG] matrix not stored update host matrix
[OGL LOG] update_host_mtx : 54 ms
[OGL LOG] matrix is not yet sorted, sorting host matrix
[OGL LOG] sort_host_mtx_sparsity_pattern : 86 ms
[OGL LOG] sort_host_mtx : 42 ms
[OGL LOG] init_preconditioner : 0 ms
 CG create  precond 
[OGL LOG] solve : 16821 ms
BJompGKOCG:  Solving for p, Initial residual = 0.630563, Final residual = 9.78172e-05, No Iterations 472
linear solve p 17167044
time step continuity errors : sum local = 8.77039e-08, global = -3.59919e-22, cumulative = -3.04487e-21
ExecutionTime = 76.28 s  ClockTime = 77 s

Time = 0.003

Courant Number mean: 0.063525 max: 0.668454
DILUPBiCGStab:  Solving for Ux, Initial residual = 0.0539125, Final residual = 0.000213874, No Iterations 5
DILUPBiCGStab:  Solving for Uy, Initial residual = 0.130271, Final residual = 0.000491817, No Iterations 5
DILUPBiCGStab:  Solving for Uz, Initial residual = 0.610601, Final residual = 0.00276801, No Iterations 5
linear solve U 380688
[OGL LOG] init_host_sparsity_pattern : 111 ms
[OGL LOG] matrix not stored update host matrix
[OGL LOG] update_host_mtx : 54 ms
[OGL LOG] matrix is not yet sorted, sorting host matrix
[OGL LOG] sort_host_mtx_sparsity_pattern : 86 ms
[OGL LOG] sort_host_mtx : 42 ms
[OGL LOG] init_preconditioner : 0 ms
 CG create  precond 
[OGL LOG] solve : 16657 ms
BJompGKOCG:  Solving for p, Initial residual = 0.658889, Final residual = 9.46749e-05, No Iterations 468
linear solve p 17003608
time step continuity errors : sum local = 6.19187e-08, global = 9.40895e-21, cumulative = 6.36408e-21
[OGL LOG] init_host_sparsity_pattern : 111 ms
[OGL LOG] matrix not stored update host matrix
[OGL LOG] update_host_mtx : 61 ms
[OGL LOG] matrix is not yet sorted, sorting host matrix
[OGL LOG] sort_host_mtx_sparsity_pattern : 86 ms
[OGL LOG] sort_host_mtx : 42 ms
[OGL LOG] init_preconditioner : 0 ms
 CG create  precond 
[OGL LOG] solve : 16679 ms
BJompGKOCG:  Solving for p, Initial residual = 0.614146, Final residual = 9.35863e-05, No Iterations 467
linear solve p 17034084
time step continuity errors : sum local = 5.94099e-08, global = 2.31772e-21, cumulative = 8.6818e-21
ExecutionTime = 110.83 s  ClockTime = 112 s

Time = 0.004

Courant Number mean: 0.074521 max: 0.679255
DILUPBiCGStab:  Solving for Ux, Initial residual = 0.0288363, Final residual = 0.0001054, No Iterations 5
DILUPBiCGStab:  Solving for Uy, Initial residual = 0.0884832, Final residual = 0.000296661, No Iterations 5
DILUPBiCGStab:  Solving for Uz, Initial residual = 0.323559, Final residual = 0.00117527, No Iterations 5
linear solve U 380932
[OGL LOG] init_host_sparsity_pattern : 112 ms
[OGL LOG] matrix not stored update host matrix
[OGL LOG] update_host_mtx : 62 ms
[OGL LOG] matrix is not yet sorted, sorting host matrix
[OGL LOG] sort_host_mtx_sparsity_pattern : 87 ms
[OGL LOG] sort_host_mtx : 43 ms
[OGL LOG] init_preconditioner : 0 ms
 CG create  precond 
[OGL LOG] solve : 16521 ms
BJompGKOCG:  Solving for p, Initial residual = 0.457162, Final residual = 9.69053e-05, No Iterations 464
linear solve p 16878249
time step continuity errors : sum local = 5.40885e-08, global = 6.58275e-21, cumulative = 1.52645e-20
[OGL LOG] init_host_sparsity_pattern : 111 ms
[OGL LOG] matrix not stored update host matrix
[OGL LOG] update_host_mtx : 61 ms
[OGL LOG] matrix is not yet sorted, sorting host matrix
[OGL LOG] sort_host_mtx_sparsity_pattern : 86 ms
[OGL LOG] sort_host_mtx : 42 ms
[OGL LOG] init_preconditioner : 0 ms
 CG create  precond 
[OGL LOG] solve : 16472 ms
BJompGKOCG:  Solving for p, Initial residual = 0.393365, Final residual = 9.83066e-05, No Iterations 461
linear solve p 16827601
time step continuity errors : sum local = 5.5565e-08, global = -1.66971e-20, cumulative = -1.43258e-21
ExecutionTime = 145.06 s  ClockTime = 146 s

Time = 0.005

Courant Number mean: 0.0833976 max: 0.689394
DILUPBiCGStab:  Solving for Ux, Initial residual = 0.0210209, Final residual = 6.37587e-05, No Iterations 5
DILUPBiCGStab:  Solving for Uy, Initial residual = 0.0480525, Final residual = 0.000107456, No Iterations 5
DILUPBiCGStab:  Solving for Uz, Initial residual = 0.123855, Final residual = 0.000602354, No Iterations 5
linear solve U 381783
[OGL LOG] init_host_sparsity_pattern : 112 ms
[OGL LOG] matrix not stored update host matrix
[OGL LOG] update_host_mtx : 62 ms
[OGL LOG] matrix is not yet sorted, sorting host matrix
[OGL LOG] sort_host_mtx_sparsity_pattern : 86 ms
[OGL LOG] sort_host_mtx : 42 ms
[OGL LOG] init_preconditioner : 0 ms
 CG create  precond 
[OGL LOG] solve : 16155 ms
BJompGKOCG:  Solving for p, Initial residual = 0.373662, Final residual = 9.49516e-05, No Iterations 454
linear solve p 16510165
time step continuity errors : sum local = 4.26899e-08, global = 1.79143e-20, cumulative = 1.64818e-20
[OGL LOG] init_host_sparsity_pattern : 111 ms
[OGL LOG] matrix not stored update host matrix
[OGL LOG] update_host_mtx : 61 ms
[OGL LOG] matrix is not yet sorted, sorting host matrix
[OGL LOG] sort_host_mtx_sparsity_pattern : 86 ms
[OGL LOG] sort_host_mtx : 42 ms
[OGL LOG] init_preconditioner : 0 ms
 CG create  precond 
[OGL LOG] solve : 16047 ms
BJompGKOCG:  Solving for p, Initial residual = 0.324821, Final residual = 9.89315e-05, No Iterations 449
linear solve p 16401878
time step continuity errors : sum local = 4.40772e-08, global = -6.2571e-21, cumulative = 1.02247e-20
ExecutionTime = 178.49 s  ClockTime = 179 s

Time = 0.006

Courant Number mean: 0.0901389 max: 0.695124
DILUPBiCGStab:  Solving for Ux, Initial residual = 0.0146315, Final residual = 3.89586e-05, No Iterations 5
DILUPBiCGStab:  Solving for Uy, Initial residual = 0.0378474, Final residual = 8.06888e-05, No Iterations 5
DILUPBiCGStab:  Solving for Uz, Initial residual = 0.102506, Final residual = 0.000381626, No Iterations 5
linear solve U 380156
[OGL LOG] init_host_sparsity_pattern : 112 ms
[OGL LOG] matrix not stored update host matrix
[OGL LOG] update_host_mtx : 62 ms
[OGL LOG] matrix is not yet sorted, sorting host matrix
[OGL LOG] sort_host_mtx_sparsity_pattern : 86 ms
[OGL LOG] sort_host_mtx : 42 ms
[OGL LOG] init_preconditioner : 0 ms
 CG create  precond 
[OGL LOG] solve : 7928 ms
BJompGKOCG:  Solving for p, Initial residual = 0.240239, Final residual = 9.86994e-05, No Iterations 222
linear solve p 8283352
time step continuity errors : sum local = 5.00306e-08, global = 1.35715e-20, cumulative = 2.37961e-20
[OGL LOG] init_host_sparsity_pattern : 111 ms
[OGL LOG] matrix not stored update host matrix
[OGL LOG] update_host_mtx : 61 ms
[OGL LOG] matrix is not yet sorted, sorting host matrix
[OGL LOG] sort_host_mtx_sparsity_pattern : 86 ms
[OGL LOG] sort_host_mtx : 42 ms
[OGL LOG] init_preconditioner : 0 ms
 CG create  precond 
[OGL LOG] solve : 7773 ms
BJompGKOCG:  Solving for p, Initial residual = 0.201948, Final residual = 9.80446e-05, No Iterations 217
linear solve p 8127244
time step continuity errors : sum local = 4.47759e-08, global = -1.24725e-20, cumulative = 1.13236e-20
ExecutionTime = 195.47 s  ClockTime = 196 s

Time = 0.007

Courant Number mean: 0.0957224 max: 0.698933
DILUPBiCGStab:  Solving for Ux, Initial residual = 0.0117978, Final residual = 2.48938e-05, No Iterations 5
DILUPBiCGStab:  Solving for Uy, Initial residual = 0.0277972, Final residual = 4.64372e-05, No Iterations 5
DILUPBiCGStab:  Solving for Uz, Initial residual = 0.056002, Final residual = 0.000135748, No Iterations 5
linear solve U 380975
[OGL LOG] init_host_sparsity_pattern : 112 ms
[OGL LOG] matrix not stored update host matrix
[OGL LOG] update_host_mtx : 62 ms
[OGL LOG] matrix is not yet sorted, sorting host matrix
[OGL LOG] sort_host_mtx_sparsity_pattern : 86 ms
[OGL LOG] sort_host_mtx : 43 ms
[OGL LOG] init_preconditioner : 0 ms
 CG create  precond 
[OGL LOG] solve : 7527 ms
BJompGKOCG:  Solving for p, Initial residual = 0.179843, Final residual = 9.9705e-05, No Iterations 211
linear solve p 7884115
time step continuity errors : sum local = 4.12877e-08, global = -6.12945e-21, cumulative = 5.19413e-21
[OGL LOG] init_host_sparsity_pattern : 113 ms
[OGL LOG] matrix not stored update host matrix
[OGL LOG] update_host_mtx : 61 ms
[OGL LOG] matrix is not yet sorted, sorting host matrix
[OGL LOG] sort_host_mtx_sparsity_pattern : 86 ms
[OGL LOG] sort_host_mtx : 42 ms
[OGL LOG] init_preconditioner : 0 ms
 CG create  precond 
[OGL LOG] solve : 7520 ms
BJompGKOCG:  Solving for p, Initial residual = 0.151845, Final residual = 9.61999e-05, No Iterations 210
linear solve p 7876807
time step continuity errors : sum local = 3.88453e-08, global = -2.06522e-20, cumulative = -1.54581e-20
ExecutionTime = 211.8 s  ClockTime = 213 s

Time = 0.008

Courant Number mean: 0.100393 max: 0.702022
DILUPBiCGStab:  Solving for Ux, Initial residual = 0.00946236, Final residual = 1.82498e-05, No Iterations 5
DILUPBiCGStab:  Solving for Uy, Initial residual = 0.0229709, Final residual = 3.19881e-05, No Iterations 5
DILUPBiCGStab:  Solving for Uz, Initial residual = 0.0501115, Final residual = 0.000136389, No Iterations 5
linear solve U 381954
[OGL LOG] init_host_sparsity_pattern : 112 ms
[OGL LOG] matrix not stored update host matrix
[OGL LOG] update_host_mtx : 62 ms
[OGL LOG] matrix is not yet sorted, sorting host matrix
[OGL LOG] sort_host_mtx_sparsity_pattern : 86 ms
[OGL LOG] sort_host_mtx : 42 ms
[OGL LOG] init_preconditioner : 0 ms
 CG create  precond 
[OGL LOG] solve : 7497 ms
BJompGKOCG:  Solving for p, Initial residual = 0.120834, Final residual = 9.56129e-05, No Iterations 210
linear solve p 7852220
time step continuity errors : sum local = 4.67653e-08, global = -5.30942e-22, cumulative = -1.5989e-20
[OGL LOG] init_host_sparsity_pattern : 111 ms
[OGL LOG] matrix not stored update host matrix
[OGL LOG] update_host_mtx : 61 ms
[OGL LOG] matrix is not yet sorted, sorting host matrix
[OGL LOG] sort_host_mtx_sparsity_pattern : 86 ms
[OGL LOG] sort_host_mtx : 42 ms
[OGL LOG] init_preconditioner : 0 ms
 CG create  precond 
[OGL LOG] solve : 7276 ms
BJompGKOCG:  Solving for p, Initial residual = 0.100397, Final residual = 9.38791e-05, No Iterations 203
linear solve p 7631069
time step continuity errors : sum local = 4.00958e-08, global = 2.10084e-20, cumulative = 5.01932e-21
ExecutionTime = 227.85 s  ClockTime = 229 s

Time = 0.009

Courant Number mean: 0.104394 max: 0.704236
DILUPBiCGStab:  Solving for Ux, Initial residual = 0.00790537, Final residual = 1.11876e-05, No Iterations 5
DILUPBiCGStab:  Solving for Uy, Initial residual = 0.0190345, Final residual = 2.60425e-05, No Iterations 5
DILUPBiCGStab:  Solving for Uz, Initial residual = 0.0372804, Final residual = 8.14105e-05, No Iterations 5
linear solve U 380438
[OGL LOG] init_host_sparsity_pattern : 111 ms
[OGL LOG] matrix not stored update host matrix
[OGL LOG] update_host_mtx : 62 ms
[OGL LOG] matrix is not yet sorted, sorting host matrix
[OGL LOG] sort_host_mtx_sparsity_pattern : 86 ms
[OGL LOG] sort_host_mtx : 42 ms
[OGL LOG] init_preconditioner : 0 ms
 CG create  precond 
[OGL LOG] solve : 7467 ms
BJompGKOCG:  Solving for p, Initial residual = 0.0897756, Final residual = 9.45479e-05, No Iterations 209
linear solve p 7820990
time step continuity errors : sum local = 4.21218e-08, global = -7.32734e-21, cumulative = -2.30802e-21
[OGL LOG] init_host_sparsity_pattern : 111 ms
[OGL LOG] matrix not stored update host matrix
[OGL LOG] update_host_mtx : 61 ms
[OGL LOG] matrix is not yet sorted, sorting host matrix
[OGL LOG] sort_host_mtx_sparsity_pattern : 86 ms
[OGL LOG] sort_host_mtx : 42 ms
[OGL LOG] init_preconditioner : 0 ms
 CG create  precond 
[OGL LOG] solve : 7201 ms
BJompGKOCG:  Solving for p, Initial residual = 0.0750757, Final residual = 9.74945e-05, No Iterations 201
linear solve p 7556288
time step continuity errors : sum local = 3.87554e-08, global = -2.8791e-20, cumulative = -3.1099e-20
ExecutionTime = 243.79 s  ClockTime = 245 s

Time = 0.01

Courant Number mean: 0.107876 max: 0.706139
DILUPBiCGStab:  Solving for Ux, Initial residual = 0.00676166, Final residual = 8.87845e-06, No Iterations 5
DILUPBiCGStab:  Solving for Uy, Initial residual = 0.0162345, Final residual = 1.44398e-05, No Iterations 5
DILUPBiCGStab:  Solving for Uz, Initial residual = 0.0342733, Final residual = 6.92458e-05, No Iterations 5
linear solve U 380413
[OGL LOG] init_host_sparsity_pattern : 112 ms
[OGL LOG] matrix not stored update host matrix
[OGL LOG] update_host_mtx : 62 ms
[OGL LOG] matrix is not yet sorted, sorting host matrix
[OGL LOG] sort_host_mtx_sparsity_pattern : 87 ms
[OGL LOG] sort_host_mtx : 42 ms
[OGL LOG] init_preconditioner : 0 ms
 CG create  precond 
[OGL LOG] solve : 15021 ms
BJompGKOCG:  Solving for p, Initial residual = 0.0619314, Final residual = 9.55989e-05, No Iterations 422
linear solve p 15377024
time step continuity errors : sum local = 3.64279e-08, global = 8.16386e-21, cumulative = -2.29352e-20
[OGL LOG] init_host_sparsity_pattern : 113 ms
[OGL LOG] matrix not stored update host matrix
[OGL LOG] update_host_mtx : 61 ms
[OGL LOG] matrix is not yet sorted, sorting host matrix
[OGL LOG] sort_host_mtx_sparsity_pattern : 86 ms
[OGL LOG] sort_host_mtx : 42 ms
[OGL LOG] init_preconditioner : 0 ms
 CG create  precond 
[OGL LOG] solve : 15065 ms
BJompGKOCG:  Solving for p, Initial residual = 0.0515259, Final residual = 9.71327e-05, No Iterations 420
linear solve p 15421834
time step continuity errors : sum local = 3.70217e-08, global = -2.4476e-20, cumulative = -4.74112e-20
ExecutionTime = 275.12 s  ClockTime = 276 s

End

