/*---------------------------------------------------------------------------*\
  =========                 |
  \\      /  F ield         | OpenFOAM: The Open Source CFD Toolbox
   \\    /   O peration     | Website:  https://openfoam.org
    \\  /    A nd           | Version:  8
     \\/     M anipulation  |
\*---------------------------------------------------------------------------*/
Build  : 8-ef60d22ea792
Exec   : icoFoam
Date   : Jul 29 2021
Time   : 00:29:15
Host   : "uc2n414.localdomain"
PID    : 2840039
I/O    : uncollated
Case   : /pfs/data5/home/kit/scc/nq7776/code/OBR/lidDrivenCavity3D/Variation_mesh/75/Variation_matrix_solver/IR_NoPrecond_OMP/base
nProcs : 1
sigFpe : Enabling floating point exception trapping (FOAM_SIGFPE).
fileModificationChecking : Monitoring run-time modified files using timeStampMaster (fileModificationSkew 10)
allowSystemOperations : Allowing user-supplied system call operations

// * * * * * * * * * * * * * * * * * * * * * * * * * * * * * * * * * * * * * //
Create time

Create mesh for time = 0

Reading transportProperties

Reading field p

Reading field U

Reading/calculating face flux field phi


Starting time loop

Time = 0.001

Courant Number mean: 0 max: 0
DILUPBiCGStab:  Solving for Ux, Initial residual = 1, Final residual = 0.00209367, No Iterations 5
DILUPBiCGStab:  Solving for Uy:  solution singularity
DILUPBiCGStab:  Solving for Uz:  solution singularity
linear solve U 195468
[OGL LOG] init_host_sparsity_pattern : 120 ms
[OGL LOG] matrix not stored update host matrix
[OGL LOG] update_host_mtx : 65 ms
[OGL LOG] matrix is not yet sorted, compute sorting idxs
[OGL LOG] compute_sort : 3637 ms
[OGL LOG] matrix is not yet sorted, sorting host matrix
[OGL LOG] sort_host_mtx_sparsity_pattern : 87 ms
[OGL LOG] sort_host_mtx : 51 ms
[OGL LOG] init_preconditioner : 0 ms
[OGL LOG] solve : 8300 ms
noneompGKOIR:  Solving for p, Initial residual = 1, Final residual = 1.16515e-05, No Iterations 3
linear solve p 12346849
time step continuity errors : sum local = 6.88602e-09, global = -1.46275e-21, cumulative = -1.46275e-21
[OGL LOG] init_host_sparsity_pattern : 115 ms
[OGL LOG] matrix not stored update host matrix
[OGL LOG] update_host_mtx : 62 ms
[OGL LOG] matrix is not yet sorted, sorting host matrix
[OGL LOG] sort_host_mtx_sparsity_pattern : 86 ms
[OGL LOG] sort_host_mtx : 42 ms
[OGL LOG] init_preconditioner : 0 ms
[OGL LOG] solve : 8439 ms
noneompGKOIR:  Solving for p, Initial residual = 0.735658, Final residual = 5.90085e-06, No Iterations 3
linear solve p 8797081
time step continuity errors : sum local = 4.58247e-09, global = -4.79411e-21, cumulative = -6.25687e-21
ExecutionTime = 23.02 s  ClockTime = 23 s

Time = 0.002

Courant Number mean: 0.0422934 max: 0.566001
DILUPBiCGStab:  Solving for Ux, Initial residual = 0.148658, Final residual = 0.000720402, No Iterations 5
DILUPBiCGStab:  Solving for Uy, Initial residual = 0.373404, Final residual = 0.00156877, No Iterations 5
DILUPBiCGStab:  Solving for Uz, Initial residual = 0.986188, Final residual = 0.0047977, No Iterations 5
linear solve U 380481
[OGL LOG] init_host_sparsity_pattern : 112 ms
[OGL LOG] matrix not stored update host matrix
[OGL LOG] update_host_mtx : 54 ms
[OGL LOG] matrix is not yet sorted, sorting host matrix
[OGL LOG] sort_host_mtx_sparsity_pattern : 86 ms
[OGL LOG] sort_host_mtx : 42 ms
[OGL LOG] init_preconditioner : 0 ms
[OGL LOG] solve : 8350 ms
noneompGKOIR:  Solving for p, Initial residual = 0.69968, Final residual = 3.51661e-06, No Iterations 3
linear solve p 8698965
time step continuity errors : sum local = 3.10555e-09, global = -4.15821e-21, cumulative = -1.04151e-20
[OGL LOG] init_host_sparsity_pattern : 122 ms
[OGL LOG] matrix not stored update host matrix
[OGL LOG] update_host_mtx : 64 ms
[OGL LOG] matrix is not yet sorted, sorting host matrix
[OGL LOG] sort_host_mtx_sparsity_pattern : 86 ms
[OGL LOG] sort_host_mtx : 42 ms
[OGL LOG] init_preconditioner : 0 ms
[OGL LOG] solve : 8387 ms
noneompGKOIR:  Solving for p, Initial residual = 0.630557, Final residual = 3.08624e-06, No Iterations 3
linear solve p 8755688
time step continuity errors : sum local = 2.78427e-09, global = 3.3625e-21, cumulative = -7.05258e-21
ExecutionTime = 41.02 s  ClockTime = 42 s

Time = 0.003

Courant Number mean: 0.063525 max: 0.668455
DILUPBiCGStab:  Solving for Ux, Initial residual = 0.0539123, Final residual = 0.00021387, No Iterations 5
DILUPBiCGStab:  Solving for Uy, Initial residual = 0.130263, Final residual = 0.000491829, No Iterations 5
DILUPBiCGStab:  Solving for Uz, Initial residual = 0.610365, Final residual = 0.00275649, No Iterations 5
linear solve U 380243
[OGL LOG] init_host_sparsity_pattern : 116 ms
[OGL LOG] matrix not stored update host matrix
[OGL LOG] update_host_mtx : 62 ms
[OGL LOG] matrix is not yet sorted, sorting host matrix
[OGL LOG] sort_host_mtx_sparsity_pattern : 86 ms
[OGL LOG] sort_host_mtx : 42 ms
[OGL LOG] init_preconditioner : 0 ms
[OGL LOG] solve : 9092 ms
noneompGKOIR:  Solving for p, Initial residual = 0.65883, Final residual = 2.46463e-06, No Iterations 3
linear solve p 9462594
time step continuity errors : sum local = 1.61172e-09, global = -1.8229e-20, cumulative = -2.52815e-20
[OGL LOG] init_host_sparsity_pattern : 128 ms
[OGL LOG] matrix not stored update host matrix
[OGL LOG] update_host_mtx : 67 ms
[OGL LOG] matrix is not yet sorted, sorting host matrix
[OGL LOG] sort_host_mtx_sparsity_pattern : 101 ms
[OGL LOG] sort_host_mtx : 45 ms
[OGL LOG] init_preconditioner : 0 ms
[OGL LOG] solve : 9138 ms
noneompGKOIR:  Solving for p, Initial residual = 0.614094, Final residual = 2.11643e-06, No Iterations 3
linear solve p 9554263
time step continuity errors : sum local = 1.34361e-09, global = 2.12184e-20, cumulative = -4.06317e-21
ExecutionTime = 60.77 s  ClockTime = 61 s

Time = 0.004

Courant Number mean: 0.0745209 max: 0.679248
DILUPBiCGStab:  Solving for Ux, Initial residual = 0.0288356, Final residual = 0.000105402, No Iterations 5
DILUPBiCGStab:  Solving for Uy, Initial residual = 0.0884863, Final residual = 0.000296689, No Iterations 5
DILUPBiCGStab:  Solving for Uz, Initial residual = 0.323053, Final residual = 0.00117269, No Iterations 5
linear solve U 405478
[OGL LOG] init_host_sparsity_pattern : 123 ms
[OGL LOG] matrix not stored update host matrix
[OGL LOG] update_host_mtx : 66 ms
[OGL LOG] matrix is not yet sorted, sorting host matrix
[OGL LOG] sort_host_mtx_sparsity_pattern : 91 ms
[OGL LOG] sort_host_mtx : 45 ms
[OGL LOG] init_preconditioner : 0 ms
[OGL LOG] solve : 8630 ms
noneompGKOIR:  Solving for p, Initial residual = 0.45717, Final residual = 1.60549e-06, No Iterations 3
linear solve p 9013883
time step continuity errors : sum local = 8.99709e-10, global = -9.58302e-21, cumulative = -1.36462e-20
[OGL LOG] init_host_sparsity_pattern : 127 ms
[OGL LOG] matrix not stored update host matrix
[OGL LOG] update_host_mtx : 65 ms
[OGL LOG] matrix is not yet sorted, sorting host matrix
[OGL LOG] sort_host_mtx_sparsity_pattern : 91 ms
[OGL LOG] sort_host_mtx : 45 ms
[OGL LOG] init_preconditioner : 0 ms
[OGL LOG] solve : 8166 ms
noneompGKOIR:  Solving for p, Initial residual = 0.393372, Final residual = 1.29599e-06, No Iterations 3
linear solve p 8553521
time step continuity errors : sum local = 7.35059e-10, global = -4.69186e-21, cumulative = -1.8338e-20
ExecutionTime = 78.94 s  ClockTime = 80 s

Time = 0.005

Courant Number mean: 0.0833976 max: 0.689392
DILUPBiCGStab:  Solving for Ux, Initial residual = 0.0210203, Final residual = 6.37535e-05, No Iterations 5
DILUPBiCGStab:  Solving for Uy, Initial residual = 0.0480488, Final residual = 0.000107439, No Iterations 5
DILUPBiCGStab:  Solving for Uz, Initial residual = 0.123642, Final residual = 0.000602755, No Iterations 5
linear solve U 403602
[OGL LOG] init_host_sparsity_pattern : 123 ms
[OGL LOG] matrix not stored update host matrix
[OGL LOG] update_host_mtx : 66 ms
[OGL LOG] matrix is not yet sorted, sorting host matrix
[OGL LOG] sort_host_mtx_sparsity_pattern : 91 ms
[OGL LOG] sort_host_mtx : 45 ms
[OGL LOG] init_preconditioner : 0 ms
[OGL LOG] solve : 9343 ms
noneompGKOIR:  Solving for p, Initial residual = 0.37361, Final residual = 1.14306e-06, No Iterations 3
linear solve p 9727476
time step continuity errors : sum local = 5.13803e-10, global = 8.6859e-21, cumulative = -9.65215e-21
[OGL LOG] init_host_sparsity_pattern : 128 ms
[OGL LOG] matrix not stored update host matrix
[OGL LOG] update_host_mtx : 66 ms
[OGL LOG] matrix is not yet sorted, sorting host matrix
[OGL LOG] sort_host_mtx_sparsity_pattern : 91 ms
[OGL LOG] sort_host_mtx : 45 ms
[OGL LOG] init_preconditioner : 0 ms
[OGL LOG] solve : 7313 ms
noneompGKOIR:  Solving for p, Initial residual = 0.324782, Final residual = 9.63635e-05, No Iterations 2
linear solve p 7700802
time step continuity errors : sum local = 4.29167e-08, global = 4.59223e-21, cumulative = -5.05992e-21
ExecutionTime = 96.97 s  ClockTime = 98 s

Time = 0.006

Courant Number mean: 0.0901388 max: 0.695122
DILUPBiCGStab:  Solving for Ux, Initial residual = 0.0146314, Final residual = 3.89614e-05, No Iterations 5
DILUPBiCGStab:  Solving for Uy, Initial residual = 0.0378474, Final residual = 8.0693e-05, No Iterations 5
DILUPBiCGStab:  Solving for Uz, Initial residual = 0.101959, Final residual = 0.00038044, No Iterations 5
linear solve U 402392
[OGL LOG] init_host_sparsity_pattern : 123 ms
[OGL LOG] matrix not stored update host matrix
[OGL LOG] update_host_mtx : 66 ms
[OGL LOG] matrix is not yet sorted, sorting host matrix
[OGL LOG] sort_host_mtx_sparsity_pattern : 91 ms
[OGL LOG] sort_host_mtx : 45 ms
[OGL LOG] init_preconditioner : 0 ms
[OGL LOG] solve : 6839 ms
noneompGKOIR:  Solving for p, Initial residual = 0.240264, Final residual = 6.59416e-05, No Iterations 2
linear solve p 7223024
time step continuity errors : sum local = 2.86487e-08, global = -1.53027e-21, cumulative = -6.59018e-21
[OGL LOG] init_host_sparsity_pattern : 128 ms
[OGL LOG] matrix not stored update host matrix
[OGL LOG] update_host_mtx : 66 ms
[OGL LOG] matrix is not yet sorted, sorting host matrix
[OGL LOG] sort_host_mtx_sparsity_pattern : 91 ms
[OGL LOG] sort_host_mtx : 45 ms
[OGL LOG] init_preconditioner : 0 ms
[OGL LOG] solve : 6881 ms
noneompGKOIR:  Solving for p, Initial residual = 0.201956, Final residual = 5.6571e-05, No Iterations 2
linear solve p 7270070
time step continuity errors : sum local = 2.46222e-08, global = 1.9598e-20, cumulative = 1.30078e-20
ExecutionTime = 112.06 s  ClockTime = 113 s

Time = 0.007

Courant Number mean: 0.0957224 max: 0.698935
DILUPBiCGStab:  Solving for Ux, Initial residual = 0.0118052, Final residual = 2.49097e-05, No Iterations 5
DILUPBiCGStab:  Solving for Uy, Initial residual = 0.0277614, Final residual = 4.64344e-05, No Iterations 5
DILUPBiCGStab:  Solving for Uz, Initial residual = 0.0558673, Final residual = 0.00013489, No Iterations 5
linear solve U 401348
[OGL LOG] init_host_sparsity_pattern : 124 ms
[OGL LOG] matrix not stored update host matrix
[OGL LOG] update_host_mtx : 66 ms
[OGL LOG] matrix is not yet sorted, sorting host matrix
[OGL LOG] sort_host_mtx_sparsity_pattern : 91 ms
[OGL LOG] sort_host_mtx : 45 ms
[OGL LOG] init_preconditioner : 0 ms
[OGL LOG] solve : 6875 ms
noneompGKOIR:  Solving for p, Initial residual = 0.179414, Final residual = 4.69326e-05, No Iterations 2
linear solve p 7259170
time step continuity errors : sum local = 1.89252e-08, global = 1.85546e-20, cumulative = 3.15624e-20
[OGL LOG] init_host_sparsity_pattern : 128 ms
[OGL LOG] matrix not stored update host matrix
[OGL LOG] update_host_mtx : 66 ms
[OGL LOG] matrix is not yet sorted, sorting host matrix
[OGL LOG] sort_host_mtx_sparsity_pattern : 91 ms
[OGL LOG] sort_host_mtx : 45 ms
[OGL LOG] init_preconditioner : 0 ms
[OGL LOG] solve : 6917 ms
noneompGKOIR:  Solving for p, Initial residual = 0.151423, Final residual = 3.92926e-05, No Iterations 2
linear solve p 7305242
time step continuity errors : sum local = 1.58259e-08, global = 1.41755e-20, cumulative = 4.57379e-20
ExecutionTime = 127.22 s  ClockTime = 128 s

Time = 0.008

Courant Number mean: 0.100393 max: 0.70202
DILUPBiCGStab:  Solving for Ux, Initial residual = 0.00946009, Final residual = 1.82536e-05, No Iterations 5
DILUPBiCGStab:  Solving for Uy, Initial residual = 0.0229659, Final residual = 3.19417e-05, No Iterations 5
DILUPBiCGStab:  Solving for Uz, Initial residual = 0.0492204, Final residual = 0.000134892, No Iterations 5
linear solve U 400739
[OGL LOG] init_host_sparsity_pattern : 123 ms
[OGL LOG] matrix not stored update host matrix
[OGL LOG] update_host_mtx : 66 ms
[OGL LOG] matrix is not yet sorted, sorting host matrix
[OGL LOG] sort_host_mtx_sparsity_pattern : 91 ms
[OGL LOG] sort_host_mtx : 45 ms
[OGL LOG] init_preconditioner : 0 ms
[OGL LOG] solve : 6594 ms
noneompGKOIR:  Solving for p, Initial residual = 0.120525, Final residual = 2.94697e-05, No Iterations 2
linear solve p 6977449
time step continuity errors : sum local = 1.161e-08, global = 6.85775e-22, cumulative = 4.64237e-20
[OGL LOG] init_host_sparsity_pattern : 128 ms
[OGL LOG] matrix not stored update host matrix
[OGL LOG] update_host_mtx : 66 ms
[OGL LOG] matrix is not yet sorted, sorting host matrix
[OGL LOG] sort_host_mtx_sparsity_pattern : 91 ms
[OGL LOG] sort_host_mtx : 45 ms
[OGL LOG] init_preconditioner : 0 ms
[OGL LOG] solve : 6587 ms
noneompGKOIR:  Solving for p, Initial residual = 0.100117, Final residual = 2.52509e-05, No Iterations 2
linear solve p 6975367
time step continuity errors : sum local = 9.94678e-09, global = -6.54277e-21, cumulative = 3.98809e-20
ExecutionTime = 141.75 s  ClockTime = 143 s

Time = 0.009

Courant Number mean: 0.104394 max: 0.704236
DILUPBiCGStab:  Solving for Ux, Initial residual = 0.0079108, Final residual = 1.11914e-05, No Iterations 5
DILUPBiCGStab:  Solving for Uy, Initial residual = 0.0189877, Final residual = 2.59959e-05, No Iterations 5
DILUPBiCGStab:  Solving for Uz, Initial residual = 0.0365771, Final residual = 7.72207e-05, No Iterations 5
linear solve U 401318
[OGL LOG] init_host_sparsity_pattern : 124 ms
[OGL LOG] matrix not stored update host matrix
[OGL LOG] update_host_mtx : 65 ms
[OGL LOG] matrix is not yet sorted, sorting host matrix
[OGL LOG] sort_host_mtx_sparsity_pattern : 91 ms
[OGL LOG] sort_host_mtx : 45 ms
[OGL LOG] init_preconditioner : 0 ms
[OGL LOG] solve : 6522 ms
noneompGKOIR:  Solving for p, Initial residual = 0.0892932, Final residual = 2.10809e-05, No Iterations 2
linear solve p 6906536
time step continuity errors : sum local = 8.13887e-09, global = -2.31155e-20, cumulative = 1.67654e-20
[OGL LOG] init_host_sparsity_pattern : 128 ms
[OGL LOG] matrix not stored update host matrix
[OGL LOG] update_host_mtx : 66 ms
[OGL LOG] matrix is not yet sorted, sorting host matrix
[OGL LOG] sort_host_mtx_sparsity_pattern : 92 ms
[OGL LOG] sort_host_mtx : 45 ms
[OGL LOG] init_preconditioner : 0 ms
[OGL LOG] solve : 6541 ms
noneompGKOIR:  Solving for p, Initial residual = 0.0746585, Final residual = 1.624e-05, No Iterations 2
linear solve p 6930123
time step continuity errors : sum local = 6.27191e-09, global = -1.27307e-20, cumulative = 4.0347e-21
ExecutionTime = 156.18 s  ClockTime = 157 s

Time = 0.01

Courant Number mean: 0.107876 max: 0.706139
DILUPBiCGStab:  Solving for Ux, Initial residual = 0.00674912, Final residual = 8.85856e-06, No Iterations 5
DILUPBiCGStab:  Solving for Uy, Initial residual = 0.0162298, Final residual = 1.41013e-05, No Iterations 5
DILUPBiCGStab:  Solving for Uz, Initial residual = 0.0326844, Final residual = 5.95113e-05, No Iterations 5
linear solve U 400219
[OGL LOG] init_host_sparsity_pattern : 124 ms
[OGL LOG] matrix not stored update host matrix
[OGL LOG] update_host_mtx : 66 ms
[OGL LOG] matrix is not yet sorted, sorting host matrix
[OGL LOG] sort_host_mtx_sparsity_pattern : 91 ms
[OGL LOG] sort_host_mtx : 45 ms
[OGL LOG] init_preconditioner : 0 ms
[OGL LOG] solve : 6781 ms
noneompGKOIR:  Solving for p, Initial residual = 0.0613475, Final residual = 1.38666e-05, No Iterations 2
linear solve p 7166470
time step continuity errors : sum local = 5.28138e-09, global = -2.14466e-20, cumulative = -1.74119e-20
[OGL LOG] init_host_sparsity_pattern : 128 ms
[OGL LOG] matrix not stored update host matrix
[OGL LOG] update_host_mtx : 66 ms
[OGL LOG] matrix is not yet sorted, sorting host matrix
[OGL LOG] sort_host_mtx_sparsity_pattern : 91 ms
[OGL LOG] sort_host_mtx : 45 ms
[OGL LOG] init_preconditioner : 0 ms
[OGL LOG] solve : 6835 ms
noneompGKOIR:  Solving for p, Initial residual = 0.0509861, Final residual = 1.03867e-05, No Iterations 2
linear solve p 7223215
time step continuity errors : sum local = 3.95642e-09, global = -2.0441e-20, cumulative = -3.78528e-20
ExecutionTime = 171.15 s  ClockTime = 172 s

End

