/*---------------------------------------------------------------------------*\
  =========                 |
  \\      /  F ield         | OpenFOAM: The Open Source CFD Toolbox
   \\    /   O peration     | Website:  https://openfoam.org
    \\  /    A nd           | Version:  8
     \\/     M anipulation  |
\*---------------------------------------------------------------------------*/
Build  : 8-14d69e1ee166
Exec   : icoFoam
Date   : Jul 29 2021
Time   : 04:56:23
Host   : "guyot.icl.utk.edu"
PID    : 222144
I/O    : uncollated
Case   : /home/greole/code/OBR/lidDrivenCavity3D/Variation_mesh/55/Variation_matrix_solver/IR_NoPrecond_CUDA/base
nProcs : 1
sigFpe : Enabling floating point exception trapping (FOAM_SIGFPE).
fileModificationChecking : Monitoring run-time modified files using timeStampMaster (fileModificationSkew 10)
allowSystemOperations : Allowing user-supplied system call operations

// * * * * * * * * * * * * * * * * * * * * * * * * * * * * * * * * * * * * * //
Create time

Create mesh for time = 0

Reading transportProperties

Reading field p

Reading field U

Reading/calculating face flux field phi


Starting time loop

Time = 0.001

Courant Number mean: 0 max: 0
DILUPBiCGStab:  Solving for Ux, Initial residual = 1, Final residual = 0.000272743, No Iterations 5
DILUPBiCGStab:  Solving for Uy:  solution singularity
DILUPBiCGStab:  Solving for Uz:  solution singularity
linear solve U 62902
[OGL LOG] init_host_sparsity_pattern : 76 ms
[OGL LOG] matrix not stored update host matrix
[OGL LOG] update_host_mtx : 39 ms
[OGL LOG] matrix is not yet sorted, compute sorting idxs
[OGL LOG] compute_sort : 1556 ms
[OGL LOG] matrix is not yet sorted, sorting host matrix
[OGL LOG] sort_host_mtx_sparsity_pattern : 30 ms
[OGL LOG] sort_host_mtx : 18 ms
[OGL LOG] init_preconditioner : 0 ms
[OGL LOG] solve : 96 ms
nonecudaGKOIR:  Solving for p, Initial residual = 1, Final residual = 1.08147e-05, No Iterations 3
linear solve p 3469020
time step continuity errors : sum local = 6.36225e-09, global = 4.24119e-21, cumulative = 4.24119e-21
[OGL LOG] init_host_sparsity_pattern : 72 ms
[OGL LOG] matrix not stored update host matrix
[OGL LOG] update_host_mtx : 38 ms
[OGL LOG] matrix is not yet sorted, sorting host matrix
[OGL LOG] sort_host_mtx_sparsity_pattern : 27 ms
[OGL LOG] sort_host_mtx : 17 ms
[OGL LOG] init_preconditioner : 0 ms
[OGL LOG] solve : 90 ms
nonecudaGKOIR:  Solving for p, Initial residual = 0.678614, Final residual = 4.72777e-06, No Iterations 3
linear solve p 258651
time step continuity errors : sum local = 3.86291e-09, global = -3.54774e-21, cumulative = 6.93445e-22
ExecutionTime = 4.57 s  ClockTime = 5 s

Time = 0.002

Courant Number mean: 0.0305076 max: 0.37634
DILUPBiCGStab:  Solving for Ux, Initial residual = 0.162208, Final residual = 6.90602e-05, No Iterations 5
DILUPBiCGStab:  Solving for Uy, Initial residual = 0.327329, Final residual = 0.000109949, No Iterations 5
DILUPBiCGStab:  Solving for Uz, Initial residual = 0.977098, Final residual = 0.000434875, No Iterations 5
linear solve U 130024
[OGL LOG] init_host_sparsity_pattern : 70 ms
[OGL LOG] matrix not stored update host matrix
[OGL LOG] update_host_mtx : 38 ms
[OGL LOG] matrix is not yet sorted, sorting host matrix
[OGL LOG] sort_host_mtx_sparsity_pattern : 27 ms
[OGL LOG] sort_host_mtx : 16 ms
[OGL LOG] init_preconditioner : 0 ms
[OGL LOG] solve : 92 ms
nonecudaGKOIR:  Solving for p, Initial residual = 0.580195, Final residual = 2.83018e-06, No Iterations 3
linear solve p 258546
time step continuity errors : sum local = 2.31221e-09, global = -1.04081e-20, cumulative = -9.71468e-21
[OGL LOG] init_host_sparsity_pattern : 70 ms
[OGL LOG] matrix not stored update host matrix
[OGL LOG] update_host_mtx : 38 ms
[OGL LOG] matrix is not yet sorted, sorting host matrix
[OGL LOG] sort_host_mtx_sparsity_pattern : 27 ms
[OGL LOG] sort_host_mtx : 17 ms
[OGL LOG] init_preconditioner : 0 ms
[OGL LOG] solve : 94 ms
nonecudaGKOIR:  Solving for p, Initial residual = 0.497835, Final residual = 2.07017e-06, No Iterations 3
linear solve p 259360
time step continuity errors : sum local = 1.7341e-09, global = -2.26728e-20, cumulative = -3.23875e-20
ExecutionTime = 5.3 s  ClockTime = 5 s

Time = 0.003

Courant Number mean: 0.0458491 max: 0.46122
DILUPBiCGStab:  Solving for Ux, Initial residual = 0.0523893, Final residual = 2.20662e-05, No Iterations 5
DILUPBiCGStab:  Solving for Uy, Initial residual = 0.09993, Final residual = 3.09424e-05, No Iterations 5
DILUPBiCGStab:  Solving for Uz, Initial residual = 0.183672, Final residual = 6.1506e-05, No Iterations 5
linear solve U 126883
[OGL LOG] init_host_sparsity_pattern : 72 ms
[OGL LOG] matrix not stored update host matrix
[OGL LOG] update_host_mtx : 36 ms
[OGL LOG] matrix is not yet sorted, sorting host matrix
[OGL LOG] sort_host_mtx_sparsity_pattern : 27 ms
[OGL LOG] sort_host_mtx : 16 ms
[OGL LOG] init_preconditioner : 0 ms
[OGL LOG] solve : 90 ms
nonecudaGKOIR:  Solving for p, Initial residual = 0.391021, Final residual = 1.26238e-06, No Iterations 3
linear solve p 255887
time step continuity errors : sum local = 7.22975e-10, global = 1.29493e-21, cumulative = -3.10926e-20
[OGL LOG] init_host_sparsity_pattern : 70 ms
[OGL LOG] matrix not stored update host matrix
[OGL LOG] update_host_mtx : 38 ms
[OGL LOG] matrix is not yet sorted, sorting host matrix
[OGL LOG] sort_host_mtx_sparsity_pattern : 27 ms
[OGL LOG] sort_host_mtx : 16 ms
[OGL LOG] init_preconditioner : 0 ms
[OGL LOG] solve : 69 ms
nonecudaGKOIR:  Solving for p, Initial residual = 0.336859, Final residual = 9.72634e-05, No Iterations 2
linear solve p 234467
time step continuity errors : sum local = 5.40691e-08, global = 4.47401e-22, cumulative = -3.06452e-20
ExecutionTime = 5.99 s  ClockTime = 6 s

Time = 0.004

Courant Number mean: 0.054485 max: 0.479438
DILUPBiCGStab:  Solving for Ux, Initial residual = 0.0312252, Final residual = 6.43476e-06, No Iterations 5
DILUPBiCGStab:  Solving for Uy, Initial residual = 0.0645989, Final residual = 1.16449e-05, No Iterations 5
DILUPBiCGStab:  Solving for Uz, Initial residual = 0.136042, Final residual = 4.34044e-05, No Iterations 5
linear solve U 126429
[OGL LOG] init_host_sparsity_pattern : 70 ms
[OGL LOG] matrix not stored update host matrix
[OGL LOG] update_host_mtx : 38 ms
[OGL LOG] matrix is not yet sorted, sorting host matrix
[OGL LOG] sort_host_mtx_sparsity_pattern : 27 ms
[OGL LOG] sort_host_mtx : 16 ms
[OGL LOG] init_preconditioner : 0 ms
[OGL LOG] solve : 69 ms
nonecudaGKOIR:  Solving for p, Initial residual = 0.194023, Final residual = 5.354e-05, No Iterations 2
linear solve p 234185
time step continuity errors : sum local = 2.84823e-08, global = 3.99435e-21, cumulative = -2.66508e-20
[OGL LOG] init_host_sparsity_pattern : 70 ms
[OGL LOG] matrix not stored update host matrix
[OGL LOG] update_host_mtx : 38 ms
[OGL LOG] matrix is not yet sorted, sorting host matrix
[OGL LOG] sort_host_mtx_sparsity_pattern : 27 ms
[OGL LOG] sort_host_mtx : 17 ms
[OGL LOG] init_preconditioner : 0 ms
[OGL LOG] solve : 69 ms
nonecudaGKOIR:  Solving for p, Initial residual = 0.155995, Final residual = 4.34059e-05, No Iterations 2
linear solve p 235317
time step continuity errors : sum local = 2.33634e-08, global = 9.4512e-21, cumulative = -1.71996e-20
ExecutionTime = 6.67 s  ClockTime = 7 s

Time = 0.005

Courant Number mean: 0.0609397 max: 0.489043
DILUPBiCGStab:  Solving for Ux, Initial residual = 0.0220113, Final residual = 5.48141e-06, No Iterations 5
DILUPBiCGStab:  Solving for Uy, Initial residual = 0.0440333, Final residual = 7.38222e-06, No Iterations 5
DILUPBiCGStab:  Solving for Uz, Initial residual = 0.0735615, Final residual = 1.84483e-05, No Iterations 5
linear solve U 127346
[OGL LOG] init_host_sparsity_pattern : 70 ms
[OGL LOG] matrix not stored update host matrix
[OGL LOG] update_host_mtx : 38 ms
[OGL LOG] matrix is not yet sorted, sorting host matrix
[OGL LOG] sort_host_mtx_sparsity_pattern : 27 ms
[OGL LOG] sort_host_mtx : 16 ms
[OGL LOG] init_preconditioner : 0 ms
[OGL LOG] solve : 69 ms
nonecudaGKOIR:  Solving for p, Initial residual = 0.107402, Final residual = 2.78943e-05, No Iterations 2
linear solve p 234160
time step continuity errors : sum local = 1.39164e-08, global = -5.11146e-21, cumulative = -2.23111e-20
[OGL LOG] init_host_sparsity_pattern : 70 ms
[OGL LOG] matrix not stored update host matrix
[OGL LOG] update_host_mtx : 37 ms
[OGL LOG] matrix is not yet sorted, sorting host matrix
[OGL LOG] sort_host_mtx_sparsity_pattern : 27 ms
[OGL LOG] sort_host_mtx : 17 ms
[OGL LOG] init_preconditioner : 0 ms
[OGL LOG] solve : 76 ms
nonecudaGKOIR:  Solving for p, Initial residual = 0.0879721, Final residual = 2.05652e-05, No Iterations 2
linear solve p 240890
time step continuity errors : sum local = 1.02441e-08, global = -1.76408e-21, cumulative = -2.40752e-20
ExecutionTime = 7.36 s  ClockTime = 7 s

Time = 0.006

Courant Number mean: 0.0659411 max: 0.494872
DILUPBiCGStab:  Solving for Ux, Initial residual = 0.0166975, Final residual = 3.3715e-06, No Iterations 5
DILUPBiCGStab:  Solving for Uy, Initial residual = 0.0337589, Final residual = 2.86949e-06, No Iterations 5
DILUPBiCGStab:  Solving for Uz, Initial residual = 0.0590994, Final residual = 1.13083e-05, No Iterations 5
linear solve U 126973
[OGL LOG] init_host_sparsity_pattern : 70 ms
[OGL LOG] matrix not stored update host matrix
[OGL LOG] update_host_mtx : 38 ms
[OGL LOG] matrix is not yet sorted, sorting host matrix
[OGL LOG] sort_host_mtx_sparsity_pattern : 27 ms
[OGL LOG] sort_host_mtx : 16 ms
[OGL LOG] init_preconditioner : 0 ms
[OGL LOG] solve : 75 ms
nonecudaGKOIR:  Solving for p, Initial residual = 0.0639904, Final residual = 1.56439e-05, No Iterations 2
linear solve p 241512
time step continuity errors : sum local = 7.71709e-09, global = 1.13634e-20, cumulative = -1.27118e-20
[OGL LOG] init_host_sparsity_pattern : 70 ms
[OGL LOG] matrix not stored update host matrix
[OGL LOG] update_host_mtx : 38 ms
[OGL LOG] matrix is not yet sorted, sorting host matrix
[OGL LOG] sort_host_mtx_sparsity_pattern : 27 ms
[OGL LOG] sort_host_mtx : 16 ms
[OGL LOG] init_preconditioner : 0 ms
[OGL LOG] solve : 78 ms
nonecudaGKOIR:  Solving for p, Initial residual = 0.0523968, Final residual = 1.23255e-05, No Iterations 2
linear solve p 243662
time step continuity errors : sum local = 6.10397e-09, global = 1.20107e-20, cumulative = -7.01064e-22
ExecutionTime = 8.04 s  ClockTime = 8 s

Time = 0.007

Courant Number mean: 0.0700483 max: 0.498906
DILUPBiCGStab:  Solving for Ux, Initial residual = 0.0133152, Final residual = 1.89653e-06, No Iterations 5
DILUPBiCGStab:  Solving for Uy, Initial residual = 0.0270065, Final residual = 2.3218e-06, No Iterations 5
DILUPBiCGStab:  Solving for Uz, Initial residual = 0.0485276, Final residual = 6.79394e-06, No Iterations 5
linear solve U 125531
[OGL LOG] init_host_sparsity_pattern : 70 ms
[OGL LOG] matrix not stored update host matrix
[OGL LOG] update_host_mtx : 38 ms
[OGL LOG] matrix is not yet sorted, sorting host matrix
[OGL LOG] sort_host_mtx_sparsity_pattern : 27 ms
[OGL LOG] sort_host_mtx : 16 ms
[OGL LOG] init_preconditioner : 0 ms
[OGL LOG] solve : 82 ms
nonecudaGKOIR:  Solving for p, Initial residual = 0.0401698, Final residual = 8.85176e-06, No Iterations 2
linear solve p 247457
time step continuity errors : sum local = 4.32863e-09, global = -2.61954e-21, cumulative = -3.3206e-21
[OGL LOG] init_host_sparsity_pattern : 70 ms
[OGL LOG] matrix not stored update host matrix
[OGL LOG] update_host_mtx : 38 ms
[OGL LOG] matrix is not yet sorted, sorting host matrix
[OGL LOG] sort_host_mtx_sparsity_pattern : 26 ms
[OGL LOG] sort_host_mtx : 16 ms
[OGL LOG] init_preconditioner : 0 ms
[OGL LOG] solve : 83 ms
nonecudaGKOIR:  Solving for p, Initial residual = 0.0339705, Final residual = 6.74245e-06, No Iterations 2
linear solve p 248373
time step continuity errors : sum local = 3.29983e-09, global = -5.9861e-21, cumulative = -9.3067e-21
ExecutionTime = 8.74 s  ClockTime = 9 s

Time = 0.008

Courant Number mean: 0.0734869 max: 0.501899
DILUPBiCGStab:  Solving for Ux, Initial residual = 0.0109613, Final residual = 1.36342e-06, No Iterations 5
DILUPBiCGStab:  Solving for Uy, Initial residual = 0.0223144, Final residual = 1.51832e-06, No Iterations 5
DILUPBiCGStab:  Solving for Uz, Initial residual = 0.0406391, Final residual = 4.59282e-06, No Iterations 5
linear solve U 125641
[OGL LOG] init_host_sparsity_pattern : 70 ms
[OGL LOG] matrix not stored update host matrix
[OGL LOG] update_host_mtx : 38 ms
[OGL LOG] matrix is not yet sorted, sorting host matrix
[OGL LOG] sort_host_mtx_sparsity_pattern : 27 ms
[OGL LOG] sort_host_mtx : 16 ms
[OGL LOG] init_preconditioner : 0 ms
[OGL LOG] solve : 83 ms
nonecudaGKOIR:  Solving for p, Initial residual = 0.0276651, Final residual = 5.52079e-06, No Iterations 2
linear solve p 249752
time step continuity errors : sum local = 2.69258e-09, global = -5.46193e-21, cumulative = -1.47686e-20
[OGL LOG] init_host_sparsity_pattern : 70 ms
[OGL LOG] matrix not stored update host matrix
[OGL LOG] update_host_mtx : 38 ms
[OGL LOG] matrix is not yet sorted, sorting host matrix
[OGL LOG] sort_host_mtx_sparsity_pattern : 26 ms
[OGL LOG] sort_host_mtx : 16 ms
[OGL LOG] init_preconditioner : 0 ms
[OGL LOG] solve : 84 ms
nonecudaGKOIR:  Solving for p, Initial residual = 0.023828, Final residual = 4.29056e-06, No Iterations 2
linear solve p 248909
time step continuity errors : sum local = 2.09673e-09, global = 4.84867e-21, cumulative = -9.91996e-21
ExecutionTime = 9.44 s  ClockTime = 10 s

Time = 0.009

Courant Number mean: 0.0764172 max: 0.504219
DILUPBiCGStab:  Solving for Ux, Initial residual = 0.00922397, Final residual = 5.8683e-07, No Iterations 5
DILUPBiCGStab:  Solving for Uy, Initial residual = 0.0189082, Final residual = 1.12753e-06, No Iterations 5
DILUPBiCGStab:  Solving for Uz, Initial residual = 0.0351558, Final residual = 3.31059e-06, No Iterations 5
linear solve U 125965
[OGL LOG] init_host_sparsity_pattern : 70 ms
[OGL LOG] matrix not stored update host matrix
[OGL LOG] update_host_mtx : 38 ms
[OGL LOG] matrix is not yet sorted, sorting host matrix
[OGL LOG] sort_host_mtx_sparsity_pattern : 27 ms
[OGL LOG] sort_host_mtx : 17 ms
[OGL LOG] init_preconditioner : 0 ms
[OGL LOG] solve : 84 ms
nonecudaGKOIR:  Solving for p, Initial residual = 0.0212939, Final residual = 3.56188e-06, No Iterations 2
linear solve p 250206
time step continuity errors : sum local = 1.73844e-09, global = -1.13686e-20, cumulative = -2.12886e-20
[OGL LOG] init_host_sparsity_pattern : 70 ms
[OGL LOG] matrix not stored update host matrix
[OGL LOG] update_host_mtx : 38 ms
[OGL LOG] matrix is not yet sorted, sorting host matrix
[OGL LOG] sort_host_mtx_sparsity_pattern : 28 ms
[OGL LOG] sort_host_mtx : 17 ms
[OGL LOG] init_preconditioner : 0 ms
[OGL LOG] solve : 84 ms
nonecudaGKOIR:  Solving for p, Initial residual = 0.018743, Final residual = 2.96526e-06, No Iterations 2
linear solve p 251291
time step continuity errors : sum local = 1.44867e-09, global = 2.68304e-21, cumulative = -1.86055e-20
ExecutionTime = 10.15 s  ClockTime = 10 s

Time = 0.01

Courant Number mean: 0.0789767 max: 0.506079
DILUPBiCGStab:  Solving for Ux, Initial residual = 0.00789805, Final residual = 4.4429e-07, No Iterations 5
DILUPBiCGStab:  Solving for Uy, Initial residual = 0.0162541, Final residual = 9.59218e-07, No Iterations 5
DILUPBiCGStab:  Solving for Uz, Initial residual = 0.0305675, Final residual = 2.53134e-06, No Iterations 5
linear solve U 126393
[OGL LOG] init_host_sparsity_pattern : 70 ms
[OGL LOG] matrix not stored update host matrix
[OGL LOG] update_host_mtx : 36 ms
[OGL LOG] matrix is not yet sorted, sorting host matrix
[OGL LOG] sort_host_mtx_sparsity_pattern : 27 ms
[OGL LOG] sort_host_mtx : 16 ms
[OGL LOG] init_preconditioner : 0 ms
[OGL LOG] solve : 84 ms
nonecudaGKOIR:  Solving for p, Initial residual = 0.0165313, Final residual = 2.78957e-06, No Iterations 2
linear solve p 248957
time step continuity errors : sum local = 1.36267e-09, global = -1.82097e-20, cumulative = -3.68153e-20
[OGL LOG] init_host_sparsity_pattern : 70 ms
[OGL LOG] matrix not stored update host matrix
[OGL LOG] update_host_mtx : 38 ms
[OGL LOG] matrix is not yet sorted, sorting host matrix
[OGL LOG] sort_host_mtx_sparsity_pattern : 29 ms
[OGL LOG] sort_host_mtx : 16 ms
[OGL LOG] init_preconditioner : 0 ms
[OGL LOG] solve : 85 ms
nonecudaGKOIR:  Solving for p, Initial residual = 0.0148371, Final residual = 2.45982e-06, No Iterations 2
linear solve p 252231
time step continuity errors : sum local = 1.20301e-09, global = 1.40004e-20, cumulative = -2.28149e-20
ExecutionTime = 10.86 s  ClockTime = 11 s

End

