/*---------------------------------------------------------------------------*\
  =========                 |
  \\      /  F ield         | OpenFOAM: The Open Source CFD Toolbox
   \\    /   O peration     | Website:  https://openfoam.org
    \\  /    A nd           | Version:  8
     \\/     M anipulation  |
\*---------------------------------------------------------------------------*/
Build  : 8-ef60d22ea792
Exec   : icoFoam
Date   : Jul 28 2021
Time   : 22:10:20
Host   : "uc2n428.localdomain"
PID    : 4080053
I/O    : uncollated
Case   : /pfs/data5/home/kit/scc/nq7776/code/OBR/lidDrivenCavity3D/Variation_mesh/15/Variation_matrix_solver/BiCGStab_NoPrecond_OMP/base
nProcs : 1
sigFpe : Enabling floating point exception trapping (FOAM_SIGFPE).
fileModificationChecking : Monitoring run-time modified files using timeStampMaster (fileModificationSkew 10)
allowSystemOperations : Allowing user-supplied system call operations

// * * * * * * * * * * * * * * * * * * * * * * * * * * * * * * * * * * * * * //
Create time

Create mesh for time = 0

Reading transportProperties

Reading field p

Reading field U

Reading/calculating face flux field phi


Starting time loop

Time = 0.001

Courant Number mean: 0 max: 0
DILUPBiCGStab:  Solving for Ux, Initial residual = 1, Final residual = 1.1028e-13, No Iterations 5
DILUPBiCGStab:  Solving for Uy:  solution singularity
DILUPBiCGStab:  Solving for Uz:  solution singularity
linear solve U 1266
[OGL LOG] init_host_sparsity_pattern : 1 ms
[OGL LOG] matrix not stored update host matrix
[OGL LOG] update_host_mtx : 0 ms
[OGL LOG] matrix is not yet sorted, compute sorting idxs
[OGL LOG] compute_sort : 21 ms
[OGL LOG] matrix is not yet sorted, sorting host matrix
[OGL LOG] sort_host_mtx_sparsity_pattern : 0 ms
[OGL LOG] sort_host_mtx : 0 ms
[OGL LOG] init_preconditioner : 0 ms
[OGL LOG] solve : 18 ms
noneompGKOBiCGStab:  Solving for p, Initial residual = 1, Final residual = 3.62624e-05, No Iterations 98
linear solve p 45215
time step continuity errors : sum local = 3.06658e-07, global = -1.88779e-20, cumulative = -1.88779e-20
[OGL LOG] init_host_sparsity_pattern : 0 ms
[OGL LOG] matrix not stored update host matrix
[OGL LOG] update_host_mtx : 0 ms
[OGL LOG] matrix is not yet sorted, sorting host matrix
[OGL LOG] sort_host_mtx_sparsity_pattern : 0 ms
[OGL LOG] sort_host_mtx : 0 ms
[OGL LOG] init_preconditioner : 0 ms
[OGL LOG] solve : 16 ms
noneompGKOBiCGStab:  Solving for p, Initial residual = 0.316826, Final residual = 7.50806e-05, No Iterations 88
linear solve p 18991
time step continuity errors : sum local = 7.29357e-07, global = 6.31837e-21, cumulative = -1.25595e-20
ExecutionTime = 0.14 s  ClockTime = 0 s

Time = 0.002

Courant Number mean: 0.00559511 max: 0.0357001
DILUPBiCGStab:  Solving for Ux, Initial residual = 0.242427, Final residual = 1.13986e-14, No Iterations 5
DILUPBiCGStab:  Solving for Uy, Initial residual = 0.296204, Final residual = 1.12419e-14, No Iterations 5
DILUPBiCGStab:  Solving for Uz, Initial residual = 0.658506, Final residual = 3.4272e-14, No Iterations 5
linear solve U 2061
[OGL LOG] init_host_sparsity_pattern : 0 ms
[OGL LOG] matrix not stored update host matrix
[OGL LOG] update_host_mtx : 0 ms
[OGL LOG] matrix is not yet sorted, sorting host matrix
[OGL LOG] sort_host_mtx_sparsity_pattern : 0 ms
[OGL LOG] sort_host_mtx : 0 ms
[OGL LOG] init_preconditioner : 0 ms
[OGL LOG] solve : 15 ms
noneompGKOBiCGStab:  Solving for p, Initial residual = 0.157761, Final residual = 7.90457e-05, No Iterations 85
linear solve p 18343
time step continuity errors : sum local = 6.85265e-07, global = 2.16316e-20, cumulative = 9.07205e-21
[OGL LOG] init_host_sparsity_pattern : 0 ms
[OGL LOG] matrix not stored update host matrix
[OGL LOG] update_host_mtx : 0 ms
[OGL LOG] matrix is not yet sorted, sorting host matrix
[OGL LOG] sort_host_mtx_sparsity_pattern : 0 ms
[OGL LOG] sort_host_mtx : 0 ms
[OGL LOG] init_preconditioner : 0 ms
[OGL LOG] solve : 14 ms
noneompGKOBiCGStab:  Solving for p, Initial residual = 0.0612192, Final residual = 8.87428e-05, No Iterations 79
linear solve p 17559
time step continuity errors : sum local = 3.58968e-07, global = -2.03486e-20, cumulative = -1.12766e-20
ExecutionTime = 0.22 s  ClockTime = 0 s

Time = 0.003

Courant Number mean: 0.00940323 max: 0.0587301
DILUPBiCGStab:  Solving for Ux, Initial residual = 0.117884, Final residual = 5.34248e-15, No Iterations 5
DILUPBiCGStab:  Solving for Uy, Initial residual = 0.148873, Final residual = 5.35201e-15, No Iterations 5
DILUPBiCGStab:  Solving for Uz, Initial residual = 0.336244, Final residual = 2.23331e-14, No Iterations 5
linear solve U 2062
[OGL LOG] init_host_sparsity_pattern : 0 ms
[OGL LOG] matrix not stored update host matrix
[OGL LOG] update_host_mtx : 0 ms
[OGL LOG] matrix is not yet sorted, sorting host matrix
[OGL LOG] sort_host_mtx_sparsity_pattern : 0 ms
[OGL LOG] sort_host_mtx : 0 ms
[OGL LOG] init_preconditioner : 0 ms
[OGL LOG] solve : 7 ms
noneompGKOBiCGStab:  Solving for p, Initial residual = 0.0768325, Final residual = 9.86186e-05, No Iterations 42
linear solve p 10791
time step continuity errors : sum local = 9.23766e-08, global = 2.11676e-21, cumulative = -9.15984e-21
[OGL LOG] init_host_sparsity_pattern : 0 ms
[OGL LOG] matrix not stored update host matrix
[OGL LOG] update_host_mtx : 0 ms
[OGL LOG] matrix is not yet sorted, sorting host matrix
[OGL LOG] sort_host_mtx_sparsity_pattern : 0 ms
[OGL LOG] sort_host_mtx : 0 ms
[OGL LOG] init_preconditioner : 0 ms
[OGL LOG] solve : 6 ms
noneompGKOBiCGStab:  Solving for p, Initial residual = 0.0343512, Final residual = 9.78398e-05, No Iterations 34
linear solve p 9395
time step continuity errors : sum local = 1.37781e-07, global = -1.57127e-20, cumulative = -2.48725e-20
ExecutionTime = 0.26 s  ClockTime = 1 s

Time = 0.004

Courant Number mean: 0.0121904 max: 0.073727
DILUPBiCGStab:  Solving for Ux, Initial residual = 0.0723272, Final residual = 2.99013e-15, No Iterations 5
DILUPBiCGStab:  Solving for Uy, Initial residual = 0.0916612, Final residual = 3.02124e-15, No Iterations 5
DILUPBiCGStab:  Solving for Uz, Initial residual = 0.183505, Final residual = 7.0739e-15, No Iterations 5
linear solve U 1965
[OGL LOG] init_host_sparsity_pattern : 0 ms
[OGL LOG] matrix not stored update host matrix
[OGL LOG] update_host_mtx : 0 ms
[OGL LOG] matrix is not yet sorted, sorting host matrix
[OGL LOG] sort_host_mtx_sparsity_pattern : 0 ms
[OGL LOG] sort_host_mtx : 0 ms
[OGL LOG] init_preconditioner : 0 ms
[OGL LOG] solve : 8 ms
noneompGKOBiCGStab:  Solving for p, Initial residual = 0.0493676, Final residual = 9.87338e-05, No Iterations 43
linear solve p 10953
time step continuity errors : sum local = 1.64296e-07, global = -1.6184e-20, cumulative = -4.10565e-20
[OGL LOG] init_host_sparsity_pattern : 0 ms
[OGL LOG] matrix not stored update host matrix
[OGL LOG] update_host_mtx : 0 ms
[OGL LOG] matrix is not yet sorted, sorting host matrix
[OGL LOG] sort_host_mtx_sparsity_pattern : 0 ms
[OGL LOG] sort_host_mtx : 0 ms
[OGL LOG] init_preconditioner : 0 ms
[OGL LOG] solve : 6 ms
noneompGKOBiCGStab:  Solving for p, Initial residual = 0.022226, Final residual = 9.84373e-05, No Iterations 32
linear solve p 9114
time step continuity errors : sum local = 1.08943e-07, global = 5.44285e-22, cumulative = -4.05123e-20
ExecutionTime = 0.31 s  ClockTime = 1 s

Time = 0.005

Courant Number mean: 0.0143061 max: 0.0838052
DILUPBiCGStab:  Solving for Ux, Initial residual = 0.048565, Final residual = 1.79918e-15, No Iterations 5
DILUPBiCGStab:  Solving for Uy, Initial residual = 0.0627374, Final residual = 1.7478e-15, No Iterations 5
DILUPBiCGStab:  Solving for Uz, Initial residual = 0.130357, Final residual = 5.12749e-15, No Iterations 5
linear solve U 2039
[OGL LOG] init_host_sparsity_pattern : 0 ms
[OGL LOG] matrix not stored update host matrix
[OGL LOG] update_host_mtx : 0 ms
[OGL LOG] matrix is not yet sorted, sorting host matrix
[OGL LOG] sort_host_mtx_sparsity_pattern : 0 ms
[OGL LOG] sort_host_mtx : 0 ms
[OGL LOG] init_preconditioner : 0 ms
[OGL LOG] solve : 15 ms
noneompGKOBiCGStab:  Solving for p, Initial residual = 0.0359996, Final residual = 8.64995e-05, No Iterations 83
linear solve p 18217
time step continuity errors : sum local = 3.68141e-07, global = -1.62351e-20, cumulative = -5.67473e-20
[OGL LOG] init_host_sparsity_pattern : 0 ms
[OGL LOG] matrix not stored update host matrix
[OGL LOG] update_host_mtx : 0 ms
[OGL LOG] matrix is not yet sorted, sorting host matrix
[OGL LOG] sort_host_mtx_sparsity_pattern : 0 ms
[OGL LOG] sort_host_mtx : 0 ms
[OGL LOG] init_preconditioner : 0 ms
[OGL LOG] solve : 5 ms
noneompGKOBiCGStab:  Solving for p, Initial residual = 0.015494, Final residual = 9.38349e-05, No Iterations 30
linear solve p 8467
time step continuity errors : sum local = 1.43989e-07, global = 3.84043e-20, cumulative = -1.8343e-20
ExecutionTime = 0.37 s  ClockTime = 1 s

Time = 0.006

Courant Number mean: 0.0159486 max: 0.0908033
DILUPBiCGStab:  Solving for Ux, Initial residual = 0.0353414, Final residual = 1.17472e-15, No Iterations 5
DILUPBiCGStab:  Solving for Uy, Initial residual = 0.0461119, Final residual = 1.0629e-15, No Iterations 5
DILUPBiCGStab:  Solving for Uz, Initial residual = 0.0993789, Final residual = 4.02164e-15, No Iterations 5
linear solve U 1969
[OGL LOG] init_host_sparsity_pattern : 0 ms
[OGL LOG] matrix not stored update host matrix
[OGL LOG] update_host_mtx : 0 ms
[OGL LOG] matrix is not yet sorted, sorting host matrix
[OGL LOG] sort_host_mtx_sparsity_pattern : 0 ms
[OGL LOG] sort_host_mtx : 0 ms
[OGL LOG] init_preconditioner : 0 ms
[OGL LOG] solve : 11 ms
noneompGKOBiCGStab:  Solving for p, Initial residual = 0.028885, Final residual = 9.8243e-05, No Iterations 66
linear solve p 14718
time step continuity errors : sum local = 2.40684e-07, global = 6.45945e-21, cumulative = -1.18835e-20
[OGL LOG] init_host_sparsity_pattern : 0 ms
[OGL LOG] matrix not stored update host matrix
[OGL LOG] update_host_mtx : 0 ms
[OGL LOG] matrix is not yet sorted, sorting host matrix
[OGL LOG] sort_host_mtx_sparsity_pattern : 0 ms
[OGL LOG] sort_host_mtx : 0 ms
[OGL LOG] init_preconditioner : 0 ms
[OGL LOG] solve : 5 ms
noneompGKOBiCGStab:  Solving for p, Initial residual = 0.0111176, Final residual = 9.04738e-05, No Iterations 30
linear solve p 8467
time step continuity errors : sum local = 1.60607e-07, global = 9.92534e-21, cumulative = -1.9582e-21
ExecutionTime = 0.42 s  ClockTime = 1 s

Time = 0.007

Courant Number mean: 0.0172722 max: 0.0958251
DILUPBiCGStab:  Solving for Ux, Initial residual = 0.0271607, Final residual = 8.70936e-16, No Iterations 5
DILUPBiCGStab:  Solving for Uy, Initial residual = 0.0356323, Final residual = 7.4068e-16, No Iterations 5
DILUPBiCGStab:  Solving for Uz, Initial residual = 0.0793209, Final residual = 3.1405e-15, No Iterations 5
linear solve U 1967
[OGL LOG] init_host_sparsity_pattern : 0 ms
[OGL LOG] matrix not stored update host matrix
[OGL LOG] update_host_mtx : 0 ms
[OGL LOG] matrix is not yet sorted, sorting host matrix
[OGL LOG] sort_host_mtx_sparsity_pattern : 0 ms
[OGL LOG] sort_host_mtx : 0 ms
[OGL LOG] init_preconditioner : 0 ms
[OGL LOG] solve : 11 ms
noneompGKOBiCGStab:  Solving for p, Initial residual = 0.0217593, Final residual = 8.37333e-05, No Iterations 67
linear solve p 14774
time step continuity errors : sum local = 1.57097e-07, global = -4.3733e-21, cumulative = -6.3315e-21
[OGL LOG] init_host_sparsity_pattern : 0 ms
[OGL LOG] matrix not stored update host matrix
[OGL LOG] update_host_mtx : 0 ms
[OGL LOG] matrix is not yet sorted, sorting host matrix
[OGL LOG] sort_host_mtx_sparsity_pattern : 0 ms
[OGL LOG] sort_host_mtx : 0 ms
[OGL LOG] init_preconditioner : 0 ms
[OGL LOG] solve : 5 ms
noneompGKOBiCGStab:  Solving for p, Initial residual = 0.00862354, Final residual = 9.68678e-05, No Iterations 27
linear solve p 7899
time step continuity errors : sum local = 1.46656e-07, global = 5.03339e-21, cumulative = -1.29811e-21
ExecutionTime = 0.47 s  ClockTime = 1 s

Time = 0.008

Courant Number mean: 0.0183557 max: 0.0995502
DILUPBiCGStab:  Solving for Ux, Initial residual = 0.0216473, Final residual = 6.39158e-16, No Iterations 5
DILUPBiCGStab:  Solving for Uy, Initial residual = 0.0286297, Final residual = 5.78388e-16, No Iterations 5
DILUPBiCGStab:  Solving for Uz, Initial residual = 0.065036, Final residual = 2.53392e-15, No Iterations 5
linear solve U 2002
[OGL LOG] init_host_sparsity_pattern : 1 ms
[OGL LOG] matrix not stored update host matrix
[OGL LOG] update_host_mtx : 0 ms
[OGL LOG] matrix is not yet sorted, sorting host matrix
[OGL LOG] sort_host_mtx_sparsity_pattern : 0 ms
[OGL LOG] sort_host_mtx : 0 ms
[OGL LOG] init_preconditioner : 0 ms
[OGL LOG] solve : 6 ms
noneompGKOBiCGStab:  Solving for p, Initial residual = 0.0163285, Final residual = 9.93482e-05, No Iterations 33
linear solve p 9020
time step continuity errors : sum local = 1.75424e-07, global = -1.25442e-21, cumulative = -2.55252e-21
[OGL LOG] init_host_sparsity_pattern : 0 ms
[OGL LOG] matrix not stored update host matrix
[OGL LOG] update_host_mtx : 0 ms
[OGL LOG] matrix is not yet sorted, sorting host matrix
[OGL LOG] sort_host_mtx_sparsity_pattern : 0 ms
[OGL LOG] sort_host_mtx : 0 ms
[OGL LOG] init_preconditioner : 0 ms
[OGL LOG] solve : 4 ms
noneompGKOBiCGStab:  Solving for p, Initial residual = 0.00668827, Final residual = 8.74268e-05, No Iterations 26
linear solve p 7616
time step continuity errors : sum local = 1.72868e-07, global = 1.7413e-20, cumulative = 1.48605e-20
ExecutionTime = 0.51 s  ClockTime = 1 s

Time = 0.009

Courant Number mean: 0.0192556 max: 0.102395
DILUPBiCGStab:  Solving for Ux, Initial residual = 0.017674, Final residual = 4.37127e-16, No Iterations 5
DILUPBiCGStab:  Solving for Uy, Initial residual = 0.0236347, Final residual = 4.82824e-16, No Iterations 5
DILUPBiCGStab:  Solving for Uz, Initial residual = 0.0545252, Final residual = 1.87935e-15, No Iterations 5
linear solve U 2050
[OGL LOG] init_host_sparsity_pattern : 0 ms
[OGL LOG] matrix not stored update host matrix
[OGL LOG] update_host_mtx : 0 ms
[OGL LOG] matrix is not yet sorted, sorting host matrix
[OGL LOG] sort_host_mtx_sparsity_pattern : 0 ms
[OGL LOG] sort_host_mtx : 0 ms
[OGL LOG] init_preconditioner : 0 ms
[OGL LOG] solve : 6 ms
noneompGKOBiCGStab:  Solving for p, Initial residual = 0.0133023, Final residual = 9.963e-05, No Iterations 33
linear solve p 9004
time step continuity errors : sum local = 1.95014e-07, global = -2.32024e-20, cumulative = -8.34196e-21
[OGL LOG] init_host_sparsity_pattern : 0 ms
[OGL LOG] matrix not stored update host matrix
[OGL LOG] update_host_mtx : 0 ms
[OGL LOG] matrix is not yet sorted, sorting host matrix
[OGL LOG] sort_host_mtx_sparsity_pattern : 0 ms
[OGL LOG] sort_host_mtx : 0 ms
[OGL LOG] init_preconditioner : 0 ms
[OGL LOG] solve : 5 ms
noneompGKOBiCGStab:  Solving for p, Initial residual = 0.00544697, Final residual = 9.20859e-05, No Iterations 27
linear solve p 8029
time step continuity errors : sum local = 1.84087e-07, global = 2.05629e-20, cumulative = 1.22209e-20
ExecutionTime = 0.55 s  ClockTime = 1 s

Time = 0.01

Courant Number mean: 0.0200147 max: 0.104627
DILUPBiCGStab:  Solving for Ux, Initial residual = 0.0147286, Final residual = 2.84322e-16, No Iterations 5
DILUPBiCGStab:  Solving for Uy, Initial residual = 0.0199328, Final residual = 4.01579e-16, No Iterations 5
DILUPBiCGStab:  Solving for Uz, Initial residual = 0.0463379, Final residual = 1.53917e-15, No Iterations 5
linear solve U 1965
[OGL LOG] init_host_sparsity_pattern : 0 ms
[OGL LOG] matrix not stored update host matrix
[OGL LOG] update_host_mtx : 0 ms
[OGL LOG] matrix is not yet sorted, sorting host matrix
[OGL LOG] sort_host_mtx_sparsity_pattern : 0 ms
[OGL LOG] sort_host_mtx : 0 ms
[OGL LOG] init_preconditioner : 0 ms
[OGL LOG] solve : 9 ms
noneompGKOBiCGStab:  Solving for p, Initial residual = 0.0111681, Final residual = 9.85921e-05, No Iterations 54
linear solve p 12525
time step continuity errors : sum local = 3.02176e-07, global = -3.32527e-22, cumulative = 1.18884e-20
[OGL LOG] init_host_sparsity_pattern : 0 ms
[OGL LOG] matrix not stored update host matrix
[OGL LOG] update_host_mtx : 0 ms
[OGL LOG] matrix is not yet sorted, sorting host matrix
[OGL LOG] sort_host_mtx_sparsity_pattern : 0 ms
[OGL LOG] sort_host_mtx : 0 ms
[OGL LOG] init_preconditioner : 0 ms
[OGL LOG] solve : 5 ms
noneompGKOBiCGStab:  Solving for p, Initial residual = 0.00460584, Final residual = 9.58514e-05, No Iterations 28
linear solve p 8149
time step continuity errors : sum local = 1.96969e-07, global = -3.63447e-20, cumulative = -2.44563e-20
ExecutionTime = 0.59 s  ClockTime = 1 s

End

