/*---------------------------------------------------------------------------*\
  =========                 |
  \\      /  F ield         | OpenFOAM: The Open Source CFD Toolbox
   \\    /   O peration     | Website:  https://openfoam.org
    \\  /    A nd           | Version:  8
     \\/     M anipulation  |
\*---------------------------------------------------------------------------*/
Build  : 8-ef60d22ea792
Exec   : icoFoam
Date   : Jul 29 2021
Time   : 02:33:25
Host   : "uc2n489.localdomain"
PID    : 3407421
I/O    : uncollated
Case   : /pfs/data5/home/kit/scc/nq7776/code/OBR/lidDrivenCavity3D/Variation_mesh/90/Variation_matrix_solver/CG_NoPrecond_CUDA/base
nProcs : 1
sigFpe : Enabling floating point exception trapping (FOAM_SIGFPE).
fileModificationChecking : Monitoring run-time modified files using timeStampMaster (fileModificationSkew 10)
allowSystemOperations : Allowing user-supplied system call operations

// * * * * * * * * * * * * * * * * * * * * * * * * * * * * * * * * * * * * * //
Create time

Create mesh for time = 0

Reading transportProperties

Reading field p

Reading field U

Reading/calculating face flux field phi


Starting time loop

Time = 0.001

Courant Number mean: 0 max: 0
DILUPBiCGStab:  Solving for Ux, Initial residual = 1, Final residual = 0.00485432, No Iterations 5
DILUPBiCGStab:  Solving for Uy:  solution singularity
DILUPBiCGStab:  Solving for Uz:  solution singularity
linear solve U 362901
[OGL LOG] init_host_sparsity_pattern : 209 ms
[OGL LOG] matrix not stored update host matrix
[OGL LOG] update_host_mtx : 108 ms
[OGL LOG] matrix is not yet sorted, compute sorting idxs
[OGL LOG] compute_sort : 6614 ms
[OGL LOG] matrix is not yet sorted, sorting host matrix
[OGL LOG] sort_host_mtx_sparsity_pattern : 147 ms
[OGL LOG] sort_host_mtx : 83 ms
[OGL LOG] init_preconditioner : 0 ms
[OGL LOG] solve : 655 ms
nonecudaGKOCG:  Solving for p, Initial residual = 1, Final residual = 9.81687e-05, No Iterations 711
linear solve p 8619589
time step continuity errors : sum local = 5.70565e-08, global = 1.26463e-20, cumulative = 1.26463e-20
[OGL LOG] init_host_sparsity_pattern : 201 ms
[OGL LOG] matrix not stored update host matrix
[OGL LOG] update_host_mtx : 108 ms
[OGL LOG] matrix is not yet sorted, sorting host matrix
[OGL LOG] sort_host_mtx_sparsity_pattern : 157 ms
[OGL LOG] sort_host_mtx : 74 ms
[OGL LOG] init_preconditioner : 0 ms
[OGL LOG] solve : 648 ms
nonecudaGKOCG:  Solving for p, Initial residual = 0.763277, Final residual = 9.98573e-05, No Iterations 702
linear solve p 1234769
time step continuity errors : sum local = 7.42453e-08, global = -2.57256e-21, cumulative = 1.00738e-20
ExecutionTime = 13.29 s  ClockTime = 13 s

Time = 0.002

Courant Number mean: 0.0507368 max: 0.709498
DILUPBiCGStab:  Solving for Ux, Initial residual = 0.142057, Final residual = 0.00197772, No Iterations 5
DILUPBiCGStab:  Solving for Uy, Initial residual = 0.4084, Final residual = 0.00514583, No Iterations 5
DILUPBiCGStab:  Solving for Uz, Initial residual = 0.989072, Final residual = 0.0136214, No Iterations 5
linear solve U 730178
[OGL LOG] init_host_sparsity_pattern : 200 ms
[OGL LOG] matrix not stored update host matrix
[OGL LOG] update_host_mtx : 108 ms
[OGL LOG] matrix is not yet sorted, sorting host matrix
[OGL LOG] sort_host_mtx_sparsity_pattern : 150 ms
[OGL LOG] sort_host_mtx : 74 ms
[OGL LOG] init_preconditioner : 0 ms
[OGL LOG] solve : 645 ms
nonecudaGKOCG:  Solving for p, Initial residual = 0.765702, Final residual = 9.54159e-05, No Iterations 699
linear solve p 1226782
time step continuity errors : sum local = 9.15161e-08, global = -1.09931e-20, cumulative = -9.19285e-22
[OGL LOG] init_host_sparsity_pattern : 211 ms
[OGL LOG] matrix not stored update host matrix
[OGL LOG] update_host_mtx : 109 ms
[OGL LOG] matrix is not yet sorted, sorting host matrix
[OGL LOG] sort_host_mtx_sparsity_pattern : 150 ms
[OGL LOG] sort_host_mtx : 75 ms
[OGL LOG] init_preconditioner : 0 ms
[OGL LOG] solve : 641 ms
nonecudaGKOCG:  Solving for p, Initial residual = 0.702783, Final residual = 9.84151e-05, No Iterations 697
linear solve p 1240434
time step continuity errors : sum local = 9.63339e-08, global = 5.56617e-21, cumulative = 4.64688e-21
ExecutionTime = 16.93 s  ClockTime = 17 s

Time = 0.003

Courant Number mean: 0.0767031 max: 0.830946
DILUPBiCGStab:  Solving for Ux, Initial residual = 0.0602986, Final residual = 0.000670331, No Iterations 5
DILUPBiCGStab:  Solving for Uy, Initial residual = 0.181407, Final residual = 0.00183522, No Iterations 5
DILUPBiCGStab:  Solving for Uz, Initial residual = 0.759577, Final residual = 0.00948886, No Iterations 5
linear solve U 727136
[OGL LOG] init_host_sparsity_pattern : 199 ms
[OGL LOG] matrix not stored update host matrix
[OGL LOG] update_host_mtx : 107 ms
[OGL LOG] matrix is not yet sorted, sorting host matrix
[OGL LOG] sort_host_mtx_sparsity_pattern : 155 ms
[OGL LOG] sort_host_mtx : 75 ms
[OGL LOG] init_preconditioner : 0 ms
[OGL LOG] solve : 388 ms
nonecudaGKOCG:  Solving for p, Initial residual = 0.780731, Final residual = 9.27199e-05, No Iterations 417
linear solve p 973776
time step continuity errors : sum local = 8.07078e-08, global = -8.41385e-21, cumulative = -3.76697e-21
[OGL LOG] init_host_sparsity_pattern : 210 ms
[OGL LOG] matrix not stored update host matrix
[OGL LOG] update_host_mtx : 108 ms
[OGL LOG] matrix is not yet sorted, sorting host matrix
[OGL LOG] sort_host_mtx_sparsity_pattern : 150 ms
[OGL LOG] sort_host_mtx : 74 ms
[OGL LOG] init_preconditioner : 0 ms
[OGL LOG] solve : 383 ms
nonecudaGKOCG:  Solving for p, Initial residual = 0.744091, Final residual = 9.48877e-05, No Iterations 414
linear solve p 973842
time step continuity errors : sum local = 7.69545e-08, global = 4.65991e-22, cumulative = -3.30098e-21
ExecutionTime = 20.04 s  ClockTime = 20 s

Time = 0.004

Courant Number mean: 0.0889413 max: 0.827781
DILUPBiCGStab:  Solving for Ux, Initial residual = 0.0330542, Final residual = 0.000439117, No Iterations 5
DILUPBiCGStab:  Solving for Uy, Initial residual = 0.130021, Final residual = 0.00153316, No Iterations 5
DILUPBiCGStab:  Solving for Uz, Initial residual = 0.521742, Final residual = 0.00551884, No Iterations 5
linear solve U 730424
[OGL LOG] init_host_sparsity_pattern : 199 ms
[OGL LOG] matrix not stored update host matrix
[OGL LOG] update_host_mtx : 108 ms
[OGL LOG] matrix is not yet sorted, sorting host matrix
[OGL LOG] sort_host_mtx_sparsity_pattern : 150 ms
[OGL LOG] sort_host_mtx : 74 ms
[OGL LOG] init_preconditioner : 0 ms
[OGL LOG] solve : 384 ms
nonecudaGKOCG:  Solving for p, Initial residual = 0.652441, Final residual = 9.57162e-05, No Iterations 413
linear solve p 964732
time step continuity errors : sum local = 7.13717e-08, global = -6.48015e-21, cumulative = -9.78112e-21
[OGL LOG] init_host_sparsity_pattern : 208 ms
[OGL LOG] matrix not stored update host matrix
[OGL LOG] update_host_mtx : 109 ms
[OGL LOG] matrix is not yet sorted, sorting host matrix
[OGL LOG] sort_host_mtx_sparsity_pattern : 150 ms
[OGL LOG] sort_host_mtx : 74 ms
[OGL LOG] init_preconditioner : 0 ms
[OGL LOG] solve : 352 ms
nonecudaGKOCG:  Solving for p, Initial residual = 0.587033, Final residual = 9.93818e-05, No Iterations 380
linear solve p 946412
time step continuity errors : sum local = 7.3114e-08, global = -6.2601e-21, cumulative = -1.60412e-20
ExecutionTime = 23.11 s  ClockTime = 23 s

Time = 0.005

Courant Number mean: 0.0998624 max: 0.839552
DILUPBiCGStab:  Solving for Ux, Initial residual = 0.0250795, Final residual = 0.000294946, No Iterations 5
DILUPBiCGStab:  Solving for Uy, Initial residual = 0.0681954, Final residual = 0.000857018, No Iterations 5
DILUPBiCGStab:  Solving for Uz, Initial residual = 0.371499, Final residual = 0.00373118, No Iterations 5
linear solve U 720923
[OGL LOG] init_host_sparsity_pattern : 199 ms
[OGL LOG] matrix not stored update host matrix
[OGL LOG] update_host_mtx : 108 ms
[OGL LOG] matrix is not yet sorted, sorting host matrix
[OGL LOG] sort_host_mtx_sparsity_pattern : 150 ms
[OGL LOG] sort_host_mtx : 74 ms
[OGL LOG] init_preconditioner : 0 ms
[OGL LOG] solve : 349 ms
nonecudaGKOCG:  Solving for p, Initial residual = 0.6284, Final residual = 9.77913e-05, No Iterations 379
linear solve p 929791
time step continuity errors : sum local = 6.39564e-08, global = -1.47219e-21, cumulative = -1.75134e-20
[OGL LOG] init_host_sparsity_pattern : 208 ms
[OGL LOG] matrix not stored update host matrix
[OGL LOG] update_host_mtx : 107 ms
[OGL LOG] matrix is not yet sorted, sorting host matrix
[OGL LOG] sort_host_mtx_sparsity_pattern : 150 ms
[OGL LOG] sort_host_mtx : 77 ms
[OGL LOG] init_preconditioner : 0 ms
[OGL LOG] solve : 318 ms
nonecudaGKOCG:  Solving for p, Initial residual = 0.576451, Final residual = 9.8108e-05, No Iterations 342
linear solve p 915522
time step continuity errors : sum local = 5.79116e-08, global = 1.00463e-20, cumulative = -7.46709e-21
ExecutionTime = 26.11 s  ClockTime = 26 s

Time = 0.006

Courant Number mean: 0.107709 max: 0.845129
DILUPBiCGStab:  Solving for Ux, Initial residual = 0.0160723, Final residual = 0.000182571, No Iterations 5
DILUPBiCGStab:  Solving for Uy, Initial residual = 0.055882, Final residual = 0.000624265, No Iterations 5
DILUPBiCGStab:  Solving for Uz, Initial residual = 0.263889, Final residual = 0.00274741, No Iterations 5
linear solve U 721472
[OGL LOG] init_host_sparsity_pattern : 200 ms
[OGL LOG] matrix not stored update host matrix
[OGL LOG] update_host_mtx : 107 ms
[OGL LOG] matrix is not yet sorted, sorting host matrix
[OGL LOG] sort_host_mtx_sparsity_pattern : 150 ms
[OGL LOG] sort_host_mtx : 74 ms
[OGL LOG] init_preconditioner : 0 ms
[OGL LOG] solve : 341 ms
nonecudaGKOCG:  Solving for p, Initial residual = 0.494471, Final residual = 9.96249e-05, No Iterations 364
linear solve p 921876
time step continuity errors : sum local = 5.67643e-08, global = -1.71599e-20, cumulative = -2.46269e-20
[OGL LOG] init_host_sparsity_pattern : 208 ms
[OGL LOG] matrix not stored update host matrix
[OGL LOG] update_host_mtx : 107 ms
[OGL LOG] matrix is not yet sorted, sorting host matrix
[OGL LOG] sort_host_mtx_sparsity_pattern : 150 ms
[OGL LOG] sort_host_mtx : 74 ms
[OGL LOG] init_preconditioner : 0 ms
[OGL LOG] solve : 332 ms
nonecudaGKOCG:  Solving for p, Initial residual = 0.438709, Final residual = 9.77373e-05, No Iterations 357
linear solve p 920923
time step continuity errors : sum local = 5.20704e-08, global = 3.16317e-21, cumulative = -2.14638e-20
ExecutionTime = 29.1 s  ClockTime = 29 s

Time = 0.007

Courant Number mean: 0.114495 max: 0.84854
DILUPBiCGStab:  Solving for Ux, Initial residual = 0.0136091, Final residual = 0.000136626, No Iterations 5
DILUPBiCGStab:  Solving for Uy, Initial residual = 0.0360613, Final residual = 0.000312378, No Iterations 5
DILUPBiCGStab:  Solving for Uz, Initial residual = 0.172898, Final residual = 0.00203039, No Iterations 5
linear solve U 722118
[OGL LOG] init_host_sparsity_pattern : 203 ms
[OGL LOG] matrix not stored update host matrix
[OGL LOG] update_host_mtx : 109 ms
[OGL LOG] matrix is not yet sorted, sorting host matrix
[OGL LOG] sort_host_mtx_sparsity_pattern : 155 ms
[OGL LOG] sort_host_mtx : 75 ms
[OGL LOG] init_preconditioner : 0 ms
[OGL LOG] solve : 627 ms
nonecudaGKOCG:  Solving for p, Initial residual = 0.455244, Final residual = 9.65415e-05, No Iterations 683
linear solve p 1216932
time step continuity errors : sum local = 4.25226e-08, global = 1.12754e-20, cumulative = -1.01883e-20
[OGL LOG] init_host_sparsity_pattern : 208 ms
[OGL LOG] matrix not stored update host matrix
[OGL LOG] update_host_mtx : 108 ms
[OGL LOG] matrix is not yet sorted, sorting host matrix
[OGL LOG] sort_host_mtx_sparsity_pattern : 150 ms
[OGL LOG] sort_host_mtx : 75 ms
[OGL LOG] init_preconditioner : 0 ms
[OGL LOG] solve : 628 ms
nonecudaGKOCG:  Solving for p, Initial residual = 0.402165, Final residual = 9.64813e-05, No Iterations 682
linear solve p 1218008
time step continuity errors : sum local = 4.23707e-08, global = -5.51685e-21, cumulative = -1.57052e-20
ExecutionTime = 32.68 s  ClockTime = 33 s

Time = 0.008

Courant Number mean: 0.120057 max: 0.852063
DILUPBiCGStab:  Solving for Ux, Initial residual = 0.00997134, Final residual = 8.95778e-05, No Iterations 5
DILUPBiCGStab:  Solving for Uy, Initial residual = 0.0308018, Final residual = 0.000267769, No Iterations 5
DILUPBiCGStab:  Solving for Uz, Initial residual = 0.131656, Final residual = 0.00148668, No Iterations 5
linear solve U 720862
[OGL LOG] init_host_sparsity_pattern : 199 ms
[OGL LOG] matrix not stored update host matrix
[OGL LOG] update_host_mtx : 108 ms
[OGL LOG] matrix is not yet sorted, sorting host matrix
[OGL LOG] sort_host_mtx_sparsity_pattern : 150 ms
[OGL LOG] sort_host_mtx : 74 ms
[OGL LOG] init_preconditioner : 0 ms
[OGL LOG] solve : 300 ms
nonecudaGKOCG:  Solving for p, Initial residual = 0.351167, Final residual = 9.8758e-05, No Iterations 325
linear solve p 880127
time step continuity errors : sum local = 4.63844e-08, global = -3.21287e-21, cumulative = -1.89181e-20
[OGL LOG] init_host_sparsity_pattern : 208 ms
[OGL LOG] matrix not stored update host matrix
[OGL LOG] update_host_mtx : 108 ms
[OGL LOG] matrix is not yet sorted, sorting host matrix
[OGL LOG] sort_host_mtx_sparsity_pattern : 150 ms
[OGL LOG] sort_host_mtx : 74 ms
[OGL LOG] init_preconditioner : 0 ms
[OGL LOG] solve : 302 ms
nonecudaGKOCG:  Solving for p, Initial residual = 0.306395, Final residual = 9.86247e-05, No Iterations 322
linear solve p 890820
time step continuity errors : sum local = 4.36997e-08, global = 7.32419e-21, cumulative = -1.15939e-20
ExecutionTime = 35.59 s  ClockTime = 35 s

Time = 0.009

Courant Number mean: 0.124912 max: 0.853937
DILUPBiCGStab:  Solving for Ux, Initial residual = 0.00859391, Final residual = 6.82828e-05, No Iterations 5
DILUPBiCGStab:  Solving for Uy, Initial residual = 0.0226757, Final residual = 0.000134505, No Iterations 5
DILUPBiCGStab:  Solving for Uz, Initial residual = 0.0877647, Final residual = 0.00116662, No Iterations 5
linear solve U 722188
[OGL LOG] init_host_sparsity_pattern : 199 ms
[OGL LOG] matrix not stored update host matrix
[OGL LOG] update_host_mtx : 108 ms
[OGL LOG] matrix is not yet sorted, sorting host matrix
[OGL LOG] sort_host_mtx_sparsity_pattern : 151 ms
[OGL LOG] sort_host_mtx : 74 ms
[OGL LOG] init_preconditioner : 0 ms
[OGL LOG] solve : 614 ms
nonecudaGKOCG:  Solving for p, Initial residual = 0.307063, Final residual = 9.9316e-05, No Iterations 664
linear solve p 1195021
time step continuity errors : sum local = 3.8403e-08, global = -9.08881e-23, cumulative = -1.16848e-20
[OGL LOG] init_host_sparsity_pattern : 208 ms
[OGL LOG] matrix not stored update host matrix
[OGL LOG] update_host_mtx : 108 ms
[OGL LOG] matrix is not yet sorted, sorting host matrix
[OGL LOG] sort_host_mtx_sparsity_pattern : 151 ms
[OGL LOG] sort_host_mtx : 75 ms
[OGL LOG] init_preconditioner : 0 ms
[OGL LOG] solve : 612 ms
nonecudaGKOCG:  Solving for p, Initial residual = 0.265761, Final residual = 9.97e-05, No Iterations 661
linear solve p 1203824
time step continuity errors : sum local = 3.85764e-08, global = -1.17942e-20, cumulative = -2.3479e-20
ExecutionTime = 39.14 s  ClockTime = 39 s

Time = 0.01

Courant Number mean: 0.129095 max: 0.856125
DILUPBiCGStab:  Solving for Ux, Initial residual = 0.00687222, Final residual = 4.81819e-05, No Iterations 5
DILUPBiCGStab:  Solving for Uy, Initial residual = 0.0198355, Final residual = 0.00012015, No Iterations 5
DILUPBiCGStab:  Solving for Uz, Initial residual = 0.0718137, Final residual = 0.00085414, No Iterations 5
linear solve U 721360
[OGL LOG] init_host_sparsity_pattern : 203 ms
[OGL LOG] matrix not stored update host matrix
[OGL LOG] update_host_mtx : 108 ms
[OGL LOG] matrix is not yet sorted, sorting host matrix
[OGL LOG] sort_host_mtx_sparsity_pattern : 150 ms
[OGL LOG] sort_host_mtx : 74 ms
[OGL LOG] init_preconditioner : 0 ms
[OGL LOG] solve : 300 ms
nonecudaGKOCG:  Solving for p, Initial residual = 0.240564, Final residual = 9.58959e-05, No Iterations 321
linear solve p 884124
time step continuity errors : sum local = 3.90135e-08, global = -2.2183e-21, cumulative = -2.56973e-20
[OGL LOG] init_host_sparsity_pattern : 208 ms
[OGL LOG] matrix not stored update host matrix
[OGL LOG] update_host_mtx : 108 ms
[OGL LOG] matrix is not yet sorted, sorting host matrix
[OGL LOG] sort_host_mtx_sparsity_pattern : 150 ms
[OGL LOG] sort_host_mtx : 74 ms
[OGL LOG] init_preconditioner : 0 ms
[OGL LOG] solve : 296 ms
nonecudaGKOCG:  Solving for p, Initial residual = 0.207571, Final residual = 9.91759e-05, No Iterations 318
linear solve p 884827
time step continuity errors : sum local = 3.8276e-08, global = -3.04105e-21, cumulative = -2.87383e-20
ExecutionTime = 42.05 s  ClockTime = 42 s

End

