/*---------------------------------------------------------------------------*\
  =========                 |
  \\      /  F ield         | OpenFOAM: The Open Source CFD Toolbox
   \\    /   O peration     | Website:  https://openfoam.org
    \\  /    A nd           | Version:  8
     \\/     M anipulation  |
\*---------------------------------------------------------------------------*/
Build  : 8-ef60d22ea792
Exec   : icoFoam
Date   : Jul 29 2021
Time   : 07:29:56
Host   : "nla-gpu2.ianm.kit.edu"
PID    : 1954901
I/O    : uncollated
Case   : /home/greole/code/OBR/lidDrivenCavity3D/Variation_mesh/30/Variation_matrix_solver/CG_NoPrecond_HIP/base
nProcs : 1
sigFpe : Enabling floating point exception trapping (FOAM_SIGFPE).
fileModificationChecking : Monitoring run-time modified files using timeStampMaster (fileModificationSkew 10)
allowSystemOperations : Allowing user-supplied system call operations

// * * * * * * * * * * * * * * * * * * * * * * * * * * * * * * * * * * * * * //
Create time

Create mesh for time = 0

Reading transportProperties

Reading field p

Reading field U

Reading/calculating face flux field phi


Starting time loop

Time = 0.001

Courant Number mean: 0 max: 0
DILUPBiCGStab:  Solving for Ux, Initial residual = 1, Final residual = 2.30612e-07, No Iterations 5
DILUPBiCGStab:  Solving for Uy:  solution singularity
DILUPBiCGStab:  Solving for Uz:  solution singularity
linear solve U 9908
[OGL LOG] init_host_sparsity_pattern : 12 ms
[OGL LOG] matrix not stored update host matrix
[OGL LOG] update_host_mtx : 6 ms
[OGL LOG] matrix is not yet sorted, compute sorting idxs
[OGL LOG] compute_sort : 215 ms
[OGL LOG] matrix is not yet sorted, sorting host matrix
[OGL LOG] sort_host_mtx_sparsity_pattern : 5 ms
[OGL LOG] sort_host_mtx : 3 ms
[OGL LOG] init_preconditioner : 0 ms
[OGL LOG] solve : 65 ms
nonehipGKOCG:  Solving for p, Initial residual = 1, Final residual = 8.82163e-05, No Iterations 231
linear solve p 740625
time step continuity errors : sum local = 4.74271e-08, global = 1.89745e-20, cumulative = 1.89745e-20
[OGL LOG] init_host_sparsity_pattern : 12 ms
[OGL LOG] matrix not stored update host matrix
[OGL LOG] update_host_mtx : 6 ms
[OGL LOG] matrix is not yet sorted, sorting host matrix
[OGL LOG] sort_host_mtx_sparsity_pattern : 5 ms
[OGL LOG] sort_host_mtx : 3 ms
[OGL LOG] init_preconditioner : 0 ms
[OGL LOG] solve : 36 ms
nonehipGKOCG:  Solving for p, Initial residual = 0.53374, Final residual = 9.51831e-05, No Iterations 226
linear solve p 67116
time step continuity errors : sum local = 7.9934e-08, global = -5.15843e-21, cumulative = 1.3816e-20
ExecutionTime = 1.05 s  ClockTime = 1 s

Time = 0.002

Courant Number mean: 0.0151361 max: 0.148264
DILUPBiCGStab:  Solving for Ux, Initial residual = 0.196126, Final residual = 3.64368e-08, No Iterations 5
DILUPBiCGStab:  Solving for Uy, Initial residual = 0.280247, Final residual = 4.08023e-08, No Iterations 5
DILUPBiCGStab:  Solving for Uz, Initial residual = 0.925444, Final residual = 1.58499e-07, No Iterations 5
linear solve U 18317
[OGL LOG] init_host_sparsity_pattern : 12 ms
[OGL LOG] matrix not stored update host matrix
[OGL LOG] update_host_mtx : 6 ms
[OGL LOG] matrix is not yet sorted, sorting host matrix
[OGL LOG] sort_host_mtx_sparsity_pattern : 4 ms
[OGL LOG] sort_host_mtx : 3 ms
[OGL LOG] init_preconditioner : 0 ms
[OGL LOG] solve : 36 ms
nonehipGKOCG:  Solving for p, Initial residual = 0.352727, Final residual = 9.3499e-05, No Iterations 223
linear solve p 65944
time step continuity errors : sum local = 7.3549e-08, global = 8.0351e-21, cumulative = 2.18511e-20
[OGL LOG] init_host_sparsity_pattern : 12 ms
[OGL LOG] matrix not stored update host matrix
[OGL LOG] update_host_mtx : 6 ms
[OGL LOG] matrix is not yet sorted, sorting host matrix
[OGL LOG] sort_host_mtx_sparsity_pattern : 5 ms
[OGL LOG] sort_host_mtx : 3 ms
[OGL LOG] init_preconditioner : 0 ms
[OGL LOG] solve : 35 ms
nonehipGKOCG:  Solving for p, Initial residual = 0.25368, Final residual = 8.91282e-05, No Iterations 220
linear solve p 65508
time step continuity errors : sum local = 7.38528e-08, global = -1.53174e-21, cumulative = 2.03194e-20
ExecutionTime = 1.27 s  ClockTime = 2 s

Time = 0.003

Courant Number mean: 0.0235106 max: 0.204199
DILUPBiCGStab:  Solving for Ux, Initial residual = 0.0796136, Final residual = 1.29716e-08, No Iterations 5
DILUPBiCGStab:  Solving for Uy, Initial residual = 0.11625, Final residual = 1.1366e-08, No Iterations 5
DILUPBiCGStab:  Solving for Uz, Initial residual = 0.202096, Final residual = 3.46516e-08, No Iterations 5
linear solve U 17587
[OGL LOG] init_host_sparsity_pattern : 12 ms
[OGL LOG] matrix not stored update host matrix
[OGL LOG] update_host_mtx : 6 ms
[OGL LOG] matrix is not yet sorted, sorting host matrix
[OGL LOG] sort_host_mtx_sparsity_pattern : 4 ms
[OGL LOG] sort_host_mtx : 3 ms
[OGL LOG] init_preconditioner : 0 ms
[OGL LOG] solve : 34 ms
nonehipGKOCG:  Solving for p, Initial residual = 0.112485, Final residual = 8.8497e-05, No Iterations 213
linear solve p 63860
time step continuity errors : sum local = 6.47114e-08, global = -8.43727e-21, cumulative = 1.18821e-20
[OGL LOG] init_host_sparsity_pattern : 12 ms
[OGL LOG] matrix not stored update host matrix
[OGL LOG] update_host_mtx : 6 ms
[OGL LOG] matrix is not yet sorted, sorting host matrix
[OGL LOG] sort_host_mtx_sparsity_pattern : 4 ms
[OGL LOG] sort_host_mtx : 3 ms
[OGL LOG] init_preconditioner : 0 ms
[OGL LOG] solve : 33 ms
nonehipGKOCG:  Solving for p, Initial residual = 0.0832845, Final residual = 9.04475e-05, No Iterations 207
linear solve p 62931
time step continuity errors : sum local = 6.73632e-08, global = 1.08562e-21, cumulative = 1.29678e-20
ExecutionTime = 1.48 s  ClockTime = 2 s

Time = 0.004

Courant Number mean: 0.0286421 max: 0.226394
DILUPBiCGStab:  Solving for Ux, Initial residual = 0.0460387, Final residual = 6.36557e-09, No Iterations 5
DILUPBiCGStab:  Solving for Uy, Initial residual = 0.0700072, Final residual = 4.32911e-09, No Iterations 5
DILUPBiCGStab:  Solving for Uz, Initial residual = 0.109554, Final residual = 1.4041e-08, No Iterations 5
linear solve U 17664
[OGL LOG] init_host_sparsity_pattern : 12 ms
[OGL LOG] matrix not stored update host matrix
[OGL LOG] update_host_mtx : 6 ms
[OGL LOG] matrix is not yet sorted, sorting host matrix
[OGL LOG] sort_host_mtx_sparsity_pattern : 4 ms
[OGL LOG] sort_host_mtx : 3 ms
[OGL LOG] init_preconditioner : 0 ms
[OGL LOG] solve : 33 ms
nonehipGKOCG:  Solving for p, Initial residual = 0.057108, Final residual = 9.57193e-05, No Iterations 205
linear solve p 62736
time step continuity errors : sum local = 7.01435e-08, global = 3.68629e-23, cumulative = 1.30046e-20
[OGL LOG] init_host_sparsity_pattern : 12 ms
[OGL LOG] matrix not stored update host matrix
[OGL LOG] update_host_mtx : 6 ms
[OGL LOG] matrix is not yet sorted, sorting host matrix
[OGL LOG] sort_host_mtx_sparsity_pattern : 4 ms
[OGL LOG] sort_host_mtx : 3 ms
[OGL LOG] init_preconditioner : 0 ms
[OGL LOG] solve : 32 ms
nonehipGKOCG:  Solving for p, Initial residual = 0.0420058, Final residual = 8.74575e-05, No Iterations 202
linear solve p 62200
time step continuity errors : sum local = 6.51614e-08, global = 1.54606e-20, cumulative = 2.84652e-20
ExecutionTime = 1.7 s  ClockTime = 2 s

Time = 0.005

Courant Number mean: 0.0323427 max: 0.237404
DILUPBiCGStab:  Solving for Ux, Initial residual = 0.0314341, Final residual = 2.99109e-09, No Iterations 5
DILUPBiCGStab:  Solving for Uy, Initial residual = 0.048221, Final residual = 2.41824e-09, No Iterations 5
DILUPBiCGStab:  Solving for Uz, Initial residual = 0.0797811, Final residual = 8.29821e-09, No Iterations 5
linear solve U 17666
[OGL LOG] init_host_sparsity_pattern : 12 ms
[OGL LOG] matrix not stored update host matrix
[OGL LOG] update_host_mtx : 6 ms
[OGL LOG] matrix is not yet sorted, sorting host matrix
[OGL LOG] sort_host_mtx_sparsity_pattern : 4 ms
[OGL LOG] sort_host_mtx : 3 ms
[OGL LOG] init_preconditioner : 0 ms
[OGL LOG] solve : 33 ms
nonehipGKOCG:  Solving for p, Initial residual = 0.0353752, Final residual = 9.18541e-05, No Iterations 202
linear solve p 62157
time step continuity errors : sum local = 6.85164e-08, global = 3.41437e-21, cumulative = 3.18796e-20
[OGL LOG] init_host_sparsity_pattern : 12 ms
[OGL LOG] matrix not stored update host matrix
[OGL LOG] update_host_mtx : 6 ms
[OGL LOG] matrix is not yet sorted, sorting host matrix
[OGL LOG] sort_host_mtx_sparsity_pattern : 4 ms
[OGL LOG] sort_host_mtx : 3 ms
[OGL LOG] init_preconditioner : 0 ms
[OGL LOG] solve : 32 ms
nonehipGKOCG:  Solving for p, Initial residual = 0.026199, Final residual = 8.77631e-05, No Iterations 199
linear solve p 61765
time step continuity errors : sum local = 6.60219e-08, global = 9.37813e-21, cumulative = 4.12577e-20
ExecutionTime = 1.91 s  ClockTime = 2 s

Time = 0.006

Courant Number mean: 0.0352087 max: 0.243905
DILUPBiCGStab:  Solving for Ux, Initial residual = 0.0234908, Final residual = 1.11404e-09, No Iterations 5
DILUPBiCGStab:  Solving for Uy, Initial residual = 0.036419, Final residual = 1.59059e-09, No Iterations 5
DILUPBiCGStab:  Solving for Uz, Initial residual = 0.0633853, Final residual = 5.54374e-09, No Iterations 5
linear solve U 17734
[OGL LOG] init_host_sparsity_pattern : 12 ms
[OGL LOG] matrix not stored update host matrix
[OGL LOG] update_host_mtx : 6 ms
[OGL LOG] matrix is not yet sorted, sorting host matrix
[OGL LOG] sort_host_mtx_sparsity_pattern : 4 ms
[OGL LOG] sort_host_mtx : 3 ms
[OGL LOG] init_preconditioner : 0 ms
[OGL LOG] solve : 32 ms
nonehipGKOCG:  Solving for p, Initial residual = 0.0251755, Final residual = 9.28306e-05, No Iterations 200
linear solve p 61838
time step continuity errors : sum local = 7.00582e-08, global = -5.03855e-20, cumulative = -9.12772e-21
[OGL LOG] init_host_sparsity_pattern : 14 ms
[OGL LOG] matrix not stored update host matrix
[OGL LOG] update_host_mtx : 6 ms
[OGL LOG] matrix is not yet sorted, sorting host matrix
[OGL LOG] sort_host_mtx_sparsity_pattern : 5 ms
[OGL LOG] sort_host_mtx : 3 ms
[OGL LOG] init_preconditioner : 0 ms
[OGL LOG] solve : 32 ms
nonehipGKOCG:  Solving for p, Initial residual = 0.0187461, Final residual = 9.91069e-05, No Iterations 197
linear solve p 64202
time step continuity errors : sum local = 7.52466e-08, global = -1.46856e-20, cumulative = -2.38133e-20
ExecutionTime = 2.12 s  ClockTime = 2 s

Time = 0.007

Courant Number mean: 0.0375052 max: 0.24826
DILUPBiCGStab:  Solving for Ux, Initial residual = 0.0185386, Final residual = 5.57316e-10, No Iterations 5
DILUPBiCGStab:  Solving for Uy, Initial residual = 0.0289671, Final residual = 1.1432e-09, No Iterations 5
DILUPBiCGStab:  Solving for Uz, Initial residual = 0.0523579, Final residual = 3.58744e-09, No Iterations 5
linear solve U 17798
[OGL LOG] init_host_sparsity_pattern : 12 ms
[OGL LOG] matrix not stored update host matrix
[OGL LOG] update_host_mtx : 6 ms
[OGL LOG] matrix is not yet sorted, sorting host matrix
[OGL LOG] sort_host_mtx_sparsity_pattern : 4 ms
[OGL LOG] sort_host_mtx : 3 ms
[OGL LOG] init_preconditioner : 0 ms
[OGL LOG] solve : 15 ms
nonehipGKOCG:  Solving for p, Initial residual = 0.0195262, Final residual = 9.49033e-05, No Iterations 94
linear solve p 44909
time step continuity errors : sum local = 8.94491e-08, global = -6.58643e-23, cumulative = -2.38791e-20
[OGL LOG] init_host_sparsity_pattern : 12 ms
[OGL LOG] matrix not stored update host matrix
[OGL LOG] update_host_mtx : 6 ms
[OGL LOG] matrix is not yet sorted, sorting host matrix
[OGL LOG] sort_host_mtx_sparsity_pattern : 4 ms
[OGL LOG] sort_host_mtx : 3 ms
[OGL LOG] init_preconditioner : 0 ms
[OGL LOG] solve : 14 ms
nonehipGKOCG:  Solving for p, Initial residual = 0.0146706, Final residual = 9.57505e-05, No Iterations 86
linear solve p 43449
time step continuity errors : sum local = 7.98095e-08, global = 3.50653e-20, cumulative = 1.11862e-20
ExecutionTime = 2.26 s  ClockTime = 2 s

Time = 0.008

Courant Number mean: 0.0393976 max: 0.251424
DILUPBiCGStab:  Solving for Ux, Initial residual = 0.0151086, Final residual = 3.45539e-10, No Iterations 5
DILUPBiCGStab:  Solving for Uy, Initial residual = 0.0238589, Final residual = 8.3286e-10, No Iterations 5
DILUPBiCGStab:  Solving for Uz, Initial residual = 0.0442654, Final residual = 2.37304e-09, No Iterations 5
linear solve U 17652
[OGL LOG] init_host_sparsity_pattern : 12 ms
[OGL LOG] matrix not stored update host matrix
[OGL LOG] update_host_mtx : 6 ms
[OGL LOG] matrix is not yet sorted, sorting host matrix
[OGL LOG] sort_host_mtx_sparsity_pattern : 4 ms
[OGL LOG] sort_host_mtx : 3 ms
[OGL LOG] init_preconditioner : 0 ms
[OGL LOG] solve : 14 ms
nonehipGKOCG:  Solving for p, Initial residual = 0.0158222, Final residual = 9.98402e-05, No Iterations 88
linear solve p 43664
time step continuity errors : sum local = 9.19609e-08, global = 3.30441e-20, cumulative = 4.42303e-20
[OGL LOG] init_host_sparsity_pattern : 12 ms
[OGL LOG] matrix not stored update host matrix
[OGL LOG] update_host_mtx : 6 ms
[OGL LOG] matrix is not yet sorted, sorting host matrix
[OGL LOG] sort_host_mtx_sparsity_pattern : 4 ms
[OGL LOG] sort_host_mtx : 3 ms
[OGL LOG] init_preconditioner : 0 ms
[OGL LOG] solve : 14 ms
nonehipGKOCG:  Solving for p, Initial residual = 0.0119726, Final residual = 9.61099e-05, No Iterations 84
linear solve p 43083
time step continuity errors : sum local = 8.28785e-08, global = 2.56774e-20, cumulative = 6.99077e-20
ExecutionTime = 2.4 s  ClockTime = 3 s

Time = 0.009

Courant Number mean: 0.0410398 max: 0.253855
DILUPBiCGStab:  Solving for Ux, Initial residual = 0.0126598, Final residual = 2.44306e-10, No Iterations 5
DILUPBiCGStab:  Solving for Uy, Initial residual = 0.0201118, Final residual = 6.24609e-10, No Iterations 5
DILUPBiCGStab:  Solving for Uz, Initial residual = 0.0379982, Final residual = 1.5798e-09, No Iterations 5
linear solve U 17698
[OGL LOG] init_host_sparsity_pattern : 12 ms
[OGL LOG] matrix not stored update host matrix
[OGL LOG] update_host_mtx : 6 ms
[OGL LOG] matrix is not yet sorted, sorting host matrix
[OGL LOG] sort_host_mtx_sparsity_pattern : 4 ms
[OGL LOG] sort_host_mtx : 3 ms
[OGL LOG] init_preconditioner : 0 ms
[OGL LOG] solve : 14 ms
nonehipGKOCG:  Solving for p, Initial residual = 0.0131493, Final residual = 9.37391e-05, No Iterations 88
linear solve p 43883
time step continuity errors : sum local = 8.93211e-08, global = 2.8119e-21, cumulative = 7.27196e-20
[OGL LOG] init_host_sparsity_pattern : 12 ms
[OGL LOG] matrix not stored update host matrix
[OGL LOG] update_host_mtx : 6 ms
[OGL LOG] matrix is not yet sorted, sorting host matrix
[OGL LOG] sort_host_mtx_sparsity_pattern : 4 ms
[OGL LOG] sort_host_mtx : 3 ms
[OGL LOG] init_preconditioner : 0 ms
[OGL LOG] solve : 13 ms
nonehipGKOCG:  Solving for p, Initial residual = 0.00999426, Final residual = 8.65076e-05, No Iterations 84
linear solve p 43151
time step continuity errors : sum local = 7.81982e-08, global = -1.34892e-20, cumulative = 5.92304e-20
ExecutionTime = 2.55 s  ClockTime = 3 s

Time = 0.01

Courant Number mean: 0.0424712 max: 0.255787
DILUPBiCGStab:  Solving for Ux, Initial residual = 0.010786, Final residual = 1.85983e-10, No Iterations 5
DILUPBiCGStab:  Solving for Uy, Initial residual = 0.0172532, Final residual = 4.82378e-10, No Iterations 5
DILUPBiCGStab:  Solving for Uz, Initial residual = 0.0330741, Final residual = 1.10656e-09, No Iterations 5
linear solve U 17575
[OGL LOG] init_host_sparsity_pattern : 12 ms
[OGL LOG] matrix not stored update host matrix
[OGL LOG] update_host_mtx : 6 ms
[OGL LOG] matrix is not yet sorted, sorting host matrix
[OGL LOG] sort_host_mtx_sparsity_pattern : 4 ms
[OGL LOG] sort_host_mtx : 3 ms
[OGL LOG] init_preconditioner : 0 ms
[OGL LOG] solve : 14 ms
nonehipGKOCG:  Solving for p, Initial residual = 0.0111355, Final residual = 9.55945e-05, No Iterations 86
linear solve p 43602
time step continuity errors : sum local = 9.17852e-08, global = 3.30459e-22, cumulative = 5.95608e-20
[OGL LOG] init_host_sparsity_pattern : 12 ms
[OGL LOG] matrix not stored update host matrix
[OGL LOG] update_host_mtx : 6 ms
[OGL LOG] matrix is not yet sorted, sorting host matrix
[OGL LOG] sort_host_mtx_sparsity_pattern : 4 ms
[OGL LOG] sort_host_mtx : 3 ms
[OGL LOG] init_preconditioner : 0 ms
[OGL LOG] solve : 13 ms
nonehipGKOCG:  Solving for p, Initial residual = 0.00850183, Final residual = 9.8261e-05, No Iterations 82
linear solve p 42834
time step continuity errors : sum local = 8.9369e-08, global = 1.8432e-20, cumulative = 7.79929e-20
ExecutionTime = 2.69 s  ClockTime = 3 s

End

