/*---------------------------------------------------------------------------*\
  =========                 |
  \\      /  F ield         | OpenFOAM: The Open Source CFD Toolbox
   \\    /   O peration     | Website:  https://openfoam.org
    \\  /    A nd           | Version:  8
     \\/     M anipulation  |
\*---------------------------------------------------------------------------*/
Build  : 8-ef60d22ea792
Exec   : icoFoam
Date   : Jul 29 2021
Time   : 07:25:00
Host   : "nla-gpu2.ianm.kit.edu"
PID    : 1952008
I/O    : uncollated
Case   : /home/greole/code/OBR/lidDrivenCavity3D/Variation_mesh/20/Variation_matrix_solver/BiCGStab_BJ_HIP/base
nProcs : 1
sigFpe : Enabling floating point exception trapping (FOAM_SIGFPE).
fileModificationChecking : Monitoring run-time modified files using timeStampMaster (fileModificationSkew 10)
allowSystemOperations : Allowing user-supplied system call operations

// * * * * * * * * * * * * * * * * * * * * * * * * * * * * * * * * * * * * * //
Create time

Create mesh for time = 0

Reading transportProperties

Reading field p

Reading field U

Reading/calculating face flux field phi


Starting time loop

Time = 0.001

Courant Number mean: 0 max: 0
DILUPBiCGStab:  Solving for Ux, Initial residual = 1, Final residual = 1.12203e-10, No Iterations 5
DILUPBiCGStab:  Solving for Uy:  solution singularity
DILUPBiCGStab:  Solving for Uz:  solution singularity
linear solve U 2985
[OGL LOG] init_host_sparsity_pattern : 4 ms
[OGL LOG] matrix not stored update host matrix
[OGL LOG] update_host_mtx : 1 ms
[OGL LOG] matrix is not yet sorted, compute sorting idxs
[OGL LOG] compute_sort : 57 ms
[OGL LOG] matrix is not yet sorted, sorting host matrix
[OGL LOG] sort_host_mtx_sparsity_pattern : 1 ms
[OGL LOG] sort_host_mtx : 0 ms
[OGL LOG] init_preconditioner : 53 ms
[OGL LOG] solve : 72 ms
BJhipGKOBiCGStab:  Solving for p, Initial residual = 1, Final residual = 4.77907e-05, No Iterations 104
linear solve p 615373
time step continuity errors : sum local = 4.564e-08, global = 4.66116e-21, cumulative = 4.66116e-21
[OGL LOG] init_host_sparsity_pattern : 3 ms
[OGL LOG] matrix not stored update host matrix
[OGL LOG] update_host_mtx : 2 ms
[OGL LOG] matrix is not yet sorted, sorting host matrix
[OGL LOG] sort_host_mtx_sparsity_pattern : 1 ms
[OGL LOG] sort_host_mtx : 0 ms
[OGL LOG] init_preconditioner : 0 ms
[OGL LOG] solve : 29 ms
BJhipGKOBiCGStab:  Solving for p, Initial residual = 0.41195, Final residual = 9.43165e-05, No Iterations 95
linear solve p 38407
time step continuity errors : sum local = 1.50851e-07, global = 3.76409e-21, cumulative = 8.42525e-21
ExecutionTime = 0.81 s  ClockTime = 1 s

Time = 0.002

Courant Number mean: 0.00876252 max: 0.0682839
DILUPBiCGStab:  Solving for Ux, Initial residual = 0.225394, Final residual = 1.40291e-11, No Iterations 5
DILUPBiCGStab:  Solving for Uy, Initial residual = 0.289579, Final residual = 1.19254e-11, No Iterations 5
DILUPBiCGStab:  Solving for Uz, Initial residual = 0.814013, Final residual = 4.10557e-11, No Iterations 5
linear solve U 5125
[OGL LOG] init_host_sparsity_pattern : 3 ms
[OGL LOG] matrix not stored update host matrix
[OGL LOG] update_host_mtx : 1 ms
[OGL LOG] matrix is not yet sorted, sorting host matrix
[OGL LOG] sort_host_mtx_sparsity_pattern : 1 ms
[OGL LOG] sort_host_mtx : 0 ms
[OGL LOG] init_preconditioner : 0 ms
[OGL LOG] solve : 31 ms
BJhipGKOBiCGStab:  Solving for p, Initial residual = 0.212857, Final residual = 8.37824e-06, No Iterations 102
linear solve p 40408
time step continuity errors : sum local = 1.2173e-08, global = -2.04735e-20, cumulative = -1.20483e-20
[OGL LOG] init_host_sparsity_pattern : 3 ms
[OGL LOG] matrix not stored update host matrix
[OGL LOG] update_host_mtx : 1 ms
[OGL LOG] matrix is not yet sorted, sorting host matrix
[OGL LOG] sort_host_mtx_sparsity_pattern : 1 ms
[OGL LOG] sort_host_mtx : 0 ms
[OGL LOG] init_preconditioner : 0 ms
[OGL LOG] solve : 26 ms
BJhipGKOBiCGStab:  Solving for p, Initial residual = 0.123169, Final residual = 5.54108e-05, No Iterations 83
linear solve p 34319
time step continuity errors : sum local = 8.96366e-08, global = -8.87565e-22, cumulative = -1.29359e-20
ExecutionTime = 0.93 s  ClockTime = 1 s

Time = 0.003

Courant Number mean: 0.0142445 max: 0.104362
DILUPBiCGStab:  Solving for Ux, Initial residual = 0.102627, Final residual = 5.81847e-12, No Iterations 5
DILUPBiCGStab:  Solving for Uy, Initial residual = 0.135052, Final residual = 5.20389e-12, No Iterations 5
DILUPBiCGStab:  Solving for Uz, Initial residual = 0.294246, Final residual = 1.37853e-11, No Iterations 5
linear solve U 5217
[OGL LOG] init_host_sparsity_pattern : 3 ms
[OGL LOG] matrix not stored update host matrix
[OGL LOG] update_host_mtx : 1 ms
[OGL LOG] matrix is not yet sorted, sorting host matrix
[OGL LOG] sort_host_mtx_sparsity_pattern : 1 ms
[OGL LOG] sort_host_mtx : 0 ms
[OGL LOG] init_preconditioner : 0 ms
[OGL LOG] solve : 24 ms
BJhipGKOBiCGStab:  Solving for p, Initial residual = 0.0914496, Final residual = 9.60831e-05, No Iterations 77
linear solve p 32673
time step continuity errors : sum local = 2.9381e-05, global = -2.39634e-20, cumulative = -3.68993e-20
[OGL LOG] init_host_sparsity_pattern : 3 ms
[OGL LOG] matrix not stored update host matrix
[OGL LOG] update_host_mtx : 2 ms
[OGL LOG] matrix is not yet sorted, sorting host matrix
[OGL LOG] sort_host_mtx_sparsity_pattern : 1 ms
[OGL LOG] sort_host_mtx : 0 ms
[OGL LOG] init_preconditioner : 0 ms
[OGL LOG] solve : 13 ms
BJhipGKOBiCGStab:  Solving for p, Initial residual = 0.0854272, Final residual = 9.78763e-05, No Iterations 42
linear solve p 21701
time step continuity errors : sum local = 1.17367e-07, global = -2.3439e-20, cumulative = -6.03383e-20
ExecutionTime = 1.03 s  ClockTime = 1 s

Time = 0.004

Courant Number mean: 0.0178686 max: 0.123853
DILUPBiCGStab:  Solving for Ux, Initial residual = 0.0603786, Final residual = 2.84129e-12, No Iterations 5
DILUPBiCGStab:  Solving for Uy, Initial residual = 0.0810507, Final residual = 2.5186e-12, No Iterations 5
DILUPBiCGStab:  Solving for Uz, Initial residual = 0.187065, Final residual = 1.15587e-11, No Iterations 5
linear solve U 5101
[OGL LOG] init_host_sparsity_pattern : 3 ms
[OGL LOG] matrix not stored update host matrix
[OGL LOG] update_host_mtx : 2 ms
[OGL LOG] matrix is not yet sorted, sorting host matrix
[OGL LOG] sort_host_mtx_sparsity_pattern : 1 ms
[OGL LOG] sort_host_mtx : 0 ms
[OGL LOG] init_preconditioner : 0 ms
[OGL LOG] solve : 9 ms
BJhipGKOBiCGStab:  Solving for p, Initial residual = 0.0614238, Final residual = 9.62933e-05, No Iterations 31
linear solve p 18219
time step continuity errors : sum local = 8.37981e-08, global = -3.90864e-20, cumulative = -9.94246e-20
[OGL LOG] init_host_sparsity_pattern : 3 ms
[OGL LOG] matrix not stored update host matrix
[OGL LOG] update_host_mtx : 2 ms
[OGL LOG] matrix is not yet sorted, sorting host matrix
[OGL LOG] sort_host_mtx_sparsity_pattern : 1 ms
[OGL LOG] sort_host_mtx : 0 ms
[OGL LOG] init_preconditioner : 0 ms
[OGL LOG] solve : 9 ms
BJhipGKOBiCGStab:  Solving for p, Initial residual = 0.0345468, Final residual = 7.57931e-05, No Iterations 28
linear solve p 17423
time step continuity errors : sum local = 9.44076e-08, global = -2.9286e-20, cumulative = -1.28711e-19
ExecutionTime = 1.09 s  ClockTime = 1 s

Time = 0.005

Courant Number mean: 0.0204632 max: 0.135216
DILUPBiCGStab:  Solving for Ux, Initial residual = 0.0403629, Final residual = 1.60083e-12, No Iterations 5
DILUPBiCGStab:  Solving for Uy, Initial residual = 0.0549952, Final residual = 1.29652e-12, No Iterations 5
DILUPBiCGStab:  Solving for Uz, Initial residual = 0.107649, Final residual = 3.78682e-12, No Iterations 5
linear solve U 5107
[OGL LOG] init_host_sparsity_pattern : 3 ms
[OGL LOG] matrix not stored update host matrix
[OGL LOG] update_host_mtx : 2 ms
[OGL LOG] matrix is not yet sorted, sorting host matrix
[OGL LOG] sort_host_mtx_sparsity_pattern : 1 ms
[OGL LOG] sort_host_mtx : 0 ms
[OGL LOG] init_preconditioner : 0 ms
[OGL LOG] solve : 9 ms
BJhipGKOBiCGStab:  Solving for p, Initial residual = 0.035974, Final residual = 9.82743e-05, No Iterations 31
linear solve p 18211
time step continuity errors : sum local = 1.08893e-07, global = 2.75637e-20, cumulative = -1.01147e-19
[OGL LOG] init_host_sparsity_pattern : 3 ms
[OGL LOG] matrix not stored update host matrix
[OGL LOG] update_host_mtx : 2 ms
[OGL LOG] matrix is not yet sorted, sorting host matrix
[OGL LOG] sort_host_mtx_sparsity_pattern : 1 ms
[OGL LOG] sort_host_mtx : 0 ms
[OGL LOG] init_preconditioner : 0 ms
[OGL LOG] solve : 9 ms
BJhipGKOBiCGStab:  Solving for p, Initial residual = 0.0202648, Final residual = 7.90031e-05, No Iterations 28
linear solve p 17511
time step continuity errors : sum local = 7.46465e-08, global = 2.89048e-20, cumulative = -7.22421e-20
ExecutionTime = 1.15 s  ClockTime = 1 s

Time = 0.006

Courant Number mean: 0.0225083 max: 0.142365
DILUPBiCGStab:  Solving for Ux, Initial residual = 0.029541, Final residual = 1.18982e-12, No Iterations 5
DILUPBiCGStab:  Solving for Uy, Initial residual = 0.040645, Final residual = 8.46955e-13, No Iterations 5
DILUPBiCGStab:  Solving for Uz, Initial residual = 0.0813337, Final residual = 2.42555e-12, No Iterations 5
linear solve U 5098
[OGL LOG] init_host_sparsity_pattern : 3 ms
[OGL LOG] matrix not stored update host matrix
[OGL LOG] update_host_mtx : 2 ms
[OGL LOG] matrix is not yet sorted, sorting host matrix
[OGL LOG] sort_host_mtx_sparsity_pattern : 1 ms
[OGL LOG] sort_host_mtx : 0 ms
[OGL LOG] init_preconditioner : 0 ms
[OGL LOG] solve : 10 ms
BJhipGKOBiCGStab:  Solving for p, Initial residual = 0.025524, Final residual = 9.43196e-05, No Iterations 33
linear solve p 18943
time step continuity errors : sum local = 1.18999e-07, global = -2.23417e-20, cumulative = -9.45839e-20
[OGL LOG] init_host_sparsity_pattern : 3 ms
[OGL LOG] matrix not stored update host matrix
[OGL LOG] update_host_mtx : 2 ms
[OGL LOG] matrix is not yet sorted, sorting host matrix
[OGL LOG] sort_host_mtx_sparsity_pattern : 1 ms
[OGL LOG] sort_host_mtx : 0 ms
[OGL LOG] init_preconditioner : 0 ms
[OGL LOG] solve : 9 ms
BJhipGKOBiCGStab:  Solving for p, Initial residual = 0.0142403, Final residual = 5.3929e-05, No Iterations 28
linear solve p 17474
time step continuity errors : sum local = 6.33323e-08, global = -3.73441e-20, cumulative = -1.31928e-19
ExecutionTime = 1.21 s  ClockTime = 1 s

Time = 0.007

Courant Number mean: 0.0241613 max: 0.147196
DILUPBiCGStab:  Solving for Ux, Initial residual = 0.0229843, Final residual = 6.70145e-13, No Iterations 5
DILUPBiCGStab:  Solving for Uy, Initial residual = 0.0317575, Final residual = 6.50127e-13, No Iterations 5
DILUPBiCGStab:  Solving for Uz, Initial residual = 0.0649051, Final residual = 1.76714e-12, No Iterations 5
linear solve U 5083
[OGL LOG] init_host_sparsity_pattern : 3 ms
[OGL LOG] matrix not stored update host matrix
[OGL LOG] update_host_mtx : 1 ms
[OGL LOG] matrix is not yet sorted, sorting host matrix
[OGL LOG] sort_host_mtx_sparsity_pattern : 1 ms
[OGL LOG] sort_host_mtx : 0 ms
[OGL LOG] init_preconditioner : 0 ms
[OGL LOG] solve : 9 ms
BJhipGKOBiCGStab:  Solving for p, Initial residual = 0.0187246, Final residual = 8.03117e-05, No Iterations 30
linear solve p 18127
time step continuity errors : sum local = 1.16582e-07, global = 1.17606e-20, cumulative = -1.20167e-19
[OGL LOG] init_host_sparsity_pattern : 3 ms
[OGL LOG] matrix not stored update host matrix
[OGL LOG] update_host_mtx : 1 ms
[OGL LOG] matrix is not yet sorted, sorting host matrix
[OGL LOG] sort_host_mtx_sparsity_pattern : 1 ms
[OGL LOG] sort_host_mtx : 0 ms
[OGL LOG] init_preconditioner : 0 ms
[OGL LOG] solve : 8 ms
BJhipGKOBiCGStab:  Solving for p, Initial residual = 0.0105076, Final residual = 9.45662e-05, No Iterations 26
linear solve p 16784
time step continuity errors : sum local = 1.16118e-07, global = 2.18262e-20, cumulative = -9.83411e-20
ExecutionTime = 1.28 s  ClockTime = 1 s

Time = 0.008

Courant Number mean: 0.0255323 max: 0.150665
DILUPBiCGStab:  Solving for Ux, Initial residual = 0.0184632, Final residual = 3.54765e-13, No Iterations 5
DILUPBiCGStab:  Solving for Uy, Initial residual = 0.0258249, Final residual = 5.05535e-13, No Iterations 5
DILUPBiCGStab:  Solving for Uz, Initial residual = 0.0535628, Final residual = 1.3836e-12, No Iterations 5
linear solve U 5133
[OGL LOG] init_host_sparsity_pattern : 3 ms
[OGL LOG] matrix not stored update host matrix
[OGL LOG] update_host_mtx : 2 ms
[OGL LOG] matrix is not yet sorted, sorting host matrix
[OGL LOG] sort_host_mtx_sparsity_pattern : 1 ms
[OGL LOG] sort_host_mtx : 0 ms
[OGL LOG] init_preconditioner : 0 ms
[OGL LOG] solve : 9 ms
BJhipGKOBiCGStab:  Solving for p, Initial residual = 0.0148211, Final residual = 8.32812e-05, No Iterations 28
linear solve p 17447
time step continuity errors : sum local = 1.26068e-07, global = 2.8077e-20, cumulative = -7.02641e-20
[OGL LOG] init_host_sparsity_pattern : 3 ms
[OGL LOG] matrix not stored update host matrix
[OGL LOG] update_host_mtx : 1 ms
[OGL LOG] matrix is not yet sorted, sorting host matrix
[OGL LOG] sort_host_mtx_sparsity_pattern : 1 ms
[OGL LOG] sort_host_mtx : 0 ms
[OGL LOG] init_preconditioner : 0 ms
[OGL LOG] solve : 8 ms
BJhipGKOBiCGStab:  Solving for p, Initial residual = 0.00836807, Final residual = 9.62433e-05, No Iterations 26
linear solve p 16960
time step continuity errors : sum local = 1.29007e-07, global = -1.83828e-20, cumulative = -8.8647e-20
ExecutionTime = 1.33 s  ClockTime = 1 s

Time = 0.009

Courant Number mean: 0.0266824 max: 0.153283
DILUPBiCGStab:  Solving for Ux, Initial residual = 0.0152318, Final residual = 2.02347e-13, No Iterations 5
DILUPBiCGStab:  Solving for Uy, Initial residual = 0.0215616, Final residual = 3.95314e-13, No Iterations 5
DILUPBiCGStab:  Solving for Uz, Initial residual = 0.0450623, Final residual = 1.09721e-12, No Iterations 5
linear solve U 5108
[OGL LOG] init_host_sparsity_pattern : 3 ms
[OGL LOG] matrix not stored update host matrix
[OGL LOG] update_host_mtx : 1 ms
[OGL LOG] matrix is not yet sorted, sorting host matrix
[OGL LOG] sort_host_mtx_sparsity_pattern : 1 ms
[OGL LOG] sort_host_mtx : 0 ms
[OGL LOG] init_preconditioner : 0 ms
[OGL LOG] solve : 9 ms
BJhipGKOBiCGStab:  Solving for p, Initial residual = 0.0119419, Final residual = 9.23455e-05, No Iterations 29
linear solve p 17651
time step continuity errors : sum local = 1.41412e-07, global = 1.88512e-20, cumulative = -6.97957e-20
[OGL LOG] init_host_sparsity_pattern : 3 ms
[OGL LOG] matrix not stored update host matrix
[OGL LOG] update_host_mtx : 2 ms
[OGL LOG] matrix is not yet sorted, sorting host matrix
[OGL LOG] sort_host_mtx_sparsity_pattern : 1 ms
[OGL LOG] sort_host_mtx : 0 ms
[OGL LOG] init_preconditioner : 0 ms
[OGL LOG] solve : 8 ms
BJhipGKOBiCGStab:  Solving for p, Initial residual = 0.00686024, Final residual = 8.8788e-05, No Iterations 27
linear solve p 17178
time step continuity errors : sum local = 1.30826e-07, global = 1.29743e-20, cumulative = -5.68214e-20
ExecutionTime = 1.38 s  ClockTime = 1 s

Time = 0.01

Courant Number mean: 0.0276672 max: 0.155336
DILUPBiCGStab:  Solving for Ux, Initial residual = 0.0128936, Final residual = 1.31012e-13, No Iterations 5
DILUPBiCGStab:  Solving for Uy, Initial residual = 0.0183823, Final residual = 3.10028e-13, No Iterations 5
DILUPBiCGStab:  Solving for Uz, Initial residual = 0.0388241, Final residual = 8.80504e-13, No Iterations 5
linear solve U 5083
[OGL LOG] init_host_sparsity_pattern : 3 ms
[OGL LOG] matrix not stored update host matrix
[OGL LOG] update_host_mtx : 2 ms
[OGL LOG] matrix is not yet sorted, sorting host matrix
[OGL LOG] sort_host_mtx_sparsity_pattern : 1 ms
[OGL LOG] sort_host_mtx : 0 ms
[OGL LOG] init_preconditioner : 0 ms
[OGL LOG] solve : 9 ms
BJhipGKOBiCGStab:  Solving for p, Initial residual = 0.0100169, Final residual = 7.91326e-05, No Iterations 28
linear solve p 17454
time step continuity errors : sum local = 1.34362e-07, global = -2.78989e-20, cumulative = -8.47204e-20
[OGL LOG] init_host_sparsity_pattern : 3 ms
[OGL LOG] matrix not stored update host matrix
[OGL LOG] update_host_mtx : 1 ms
[OGL LOG] matrix is not yet sorted, sorting host matrix
[OGL LOG] sort_host_mtx_sparsity_pattern : 1 ms
[OGL LOG] sort_host_mtx : 0 ms
[OGL LOG] init_preconditioner : 0 ms
[OGL LOG] solve : 8 ms
BJhipGKOBiCGStab:  Solving for p, Initial residual = 0.00582359, Final residual = 8.93593e-05, No Iterations 26
linear solve p 16940
time step continuity errors : sum local = 1.37938e-07, global = 3.54902e-21, cumulative = -8.11713e-20
ExecutionTime = 1.45 s  ClockTime = 1 s

End

