/*---------------------------------------------------------------------------*\
  =========                 |
  \\      /  F ield         | OpenFOAM: The Open Source CFD Toolbox
   \\    /   O peration     | Website:  https://openfoam.org
    \\  /    A nd           | Version:  8
     \\/     M anipulation  |
\*---------------------------------------------------------------------------*/
Build  : 8-14d69e1ee166
Exec   : icoFoam
Date   : Jul 29 2021
Time   : 08:07:42
Host   : "guyot.icl.utk.edu"
PID    : 90508
I/O    : uncollated
Case   : /home/greole/code/OBR/lidDrivenCavity3D/Variation_mesh/20/Variation_matrix_solver/BiCGStab_NoPrecond_CUDA/base
nProcs : 1
sigFpe : Enabling floating point exception trapping (FOAM_SIGFPE).
fileModificationChecking : Monitoring run-time modified files using timeStampMaster (fileModificationSkew 10)
allowSystemOperations : Allowing user-supplied system call operations

// * * * * * * * * * * * * * * * * * * * * * * * * * * * * * * * * * * * * * //
Create time

Create mesh for time = 0

Reading transportProperties

Reading field p

Reading field U

Reading/calculating face flux field phi


Starting time loop

Time = 0.001

Courant Number mean: 0 max: 0
DILUPBiCGStab:  Solving for Ux, Initial residual = 1, Final residual = 1.12203e-10, No Iterations 5
DILUPBiCGStab:  Solving for Uy:  solution singularity
DILUPBiCGStab:  Solving for Uz:  solution singularity
linear solve U 2854
[OGL LOG] init_host_sparsity_pattern : 3 ms
[OGL LOG] matrix not stored update host matrix
[OGL LOG] update_host_mtx : 1 ms
[OGL LOG] matrix is not yet sorted, compute sorting idxs
[OGL LOG] compute_sort : 61 ms
[OGL LOG] matrix is not yet sorted, sorting host matrix
[OGL LOG] sort_host_mtx_sparsity_pattern : 1 ms
[OGL LOG] sort_host_mtx : 0 ms
[OGL LOG] init_preconditioner : 0 ms
[OGL LOG] solve : 55 ms
nonecudaGKOBiCGStab:  Solving for p, Initial residual = 1, Final residual = 9.89849e-05, No Iterations 125
linear solve p 1819605
time step continuity errors : sum local = 9.45303e-08, global = -4.62146e-21, cumulative = -4.62146e-21
[OGL LOG] init_host_sparsity_pattern : 3 ms
[OGL LOG] matrix not stored update host matrix
[OGL LOG] update_host_mtx : 1 ms
[OGL LOG] matrix is not yet sorted, sorting host matrix
[OGL LOG] sort_host_mtx_sparsity_pattern : 1 ms
[OGL LOG] sort_host_mtx : 0 ms
[OGL LOG] init_preconditioner : 0 ms
[OGL LOG] solve : 53 ms
nonecudaGKOBiCGStab:  Solving for p, Initial residual = 0.412022, Final residual = 6.79527e-05, No Iterations 123
linear solve p 61957
time step continuity errors : sum local = 1.08658e-07, global = -3.42949e-21, cumulative = -8.05095e-21
ExecutionTime = 1.91 s  ClockTime = 2 s

Time = 0.002

Courant Number mean: 0.00876233 max: 0.0682839
DILUPBiCGStab:  Solving for Ux, Initial residual = 0.22539, Final residual = 1.40293e-11, No Iterations 5
DILUPBiCGStab:  Solving for Uy, Initial residual = 0.289575, Final residual = 1.19249e-11, No Iterations 5
DILUPBiCGStab:  Solving for Uz, Initial residual = 0.818508, Final residual = 4.11334e-11, No Iterations 5
linear solve U 5027
[OGL LOG] init_host_sparsity_pattern : 3 ms
[OGL LOG] matrix not stored update host matrix
[OGL LOG] update_host_mtx : 1 ms
[OGL LOG] matrix is not yet sorted, sorting host matrix
[OGL LOG] sort_host_mtx_sparsity_pattern : 1 ms
[OGL LOG] sort_host_mtx : 0 ms
[OGL LOG] init_preconditioner : 0 ms
[OGL LOG] solve : 50 ms
nonecudaGKOBiCGStab:  Solving for p, Initial residual = 0.212868, Final residual = 8.60136e-05, No Iterations 115
linear solve p 58366
time step continuity errors : sum local = 1.30028e-07, global = -8.73048e-21, cumulative = -1.67814e-20
[OGL LOG] init_host_sparsity_pattern : 3 ms
[OGL LOG] matrix not stored update host matrix
[OGL LOG] update_host_mtx : 1 ms
[OGL LOG] matrix is not yet sorted, sorting host matrix
[OGL LOG] sort_host_mtx_sparsity_pattern : 1 ms
[OGL LOG] sort_host_mtx : 0 ms
[OGL LOG] init_preconditioner : 0 ms
[OGL LOG] solve : 48 ms
nonecudaGKOBiCGStab:  Solving for p, Initial residual = 0.123138, Final residual = 9.78621e-05, No Iterations 111
linear solve p 56575
time step continuity errors : sum local = 1.58254e-07, global = 1.36634e-20, cumulative = -3.11806e-21
ExecutionTime = 2.03 s  ClockTime = 2 s

Time = 0.003

Courant Number mean: 0.0142441 max: 0.104363
DILUPBiCGStab:  Solving for Ux, Initial residual = 0.102529, Final residual = 5.82254e-12, No Iterations 5
DILUPBiCGStab:  Solving for Uy, Initial residual = 0.135227, Final residual = 5.20307e-12, No Iterations 5
DILUPBiCGStab:  Solving for Uz, Initial residual = 0.306132, Final residual = 1.77218e-11, No Iterations 5
linear solve U 5018
[OGL LOG] init_host_sparsity_pattern : 3 ms
[OGL LOG] matrix not stored update host matrix
[OGL LOG] update_host_mtx : 1 ms
[OGL LOG] matrix is not yet sorted, sorting host matrix
[OGL LOG] sort_host_mtx_sparsity_pattern : 1 ms
[OGL LOG] sort_host_mtx : 0 ms
[OGL LOG] init_preconditioner : 0 ms
[OGL LOG] solve : 23 ms
nonecudaGKOBiCGStab:  Solving for p, Initial residual = 0.0919766, Final residual = 9.84307e-05, No Iterations 52
linear solve p 31077
time step continuity errors : sum local = 8.40724e-08, global = -2.19211e-20, cumulative = -2.50392e-20
[OGL LOG] init_host_sparsity_pattern : 3 ms
[OGL LOG] matrix not stored update host matrix
[OGL LOG] update_host_mtx : 1 ms
[OGL LOG] matrix is not yet sorted, sorting host matrix
[OGL LOG] sort_host_mtx_sparsity_pattern : 1 ms
[OGL LOG] sort_host_mtx : 0 ms
[OGL LOG] init_preconditioner : 0 ms
[OGL LOG] solve : 21 ms
nonecudaGKOBiCGStab:  Solving for p, Initial residual = 0.0551745, Final residual = 9.46849e-05, No Iterations 49
linear solve p 29968
time step continuity errors : sum local = 1.4181e-07, global = 1.49858e-20, cumulative = -1.00533e-20
ExecutionTime = 2.1 s  ClockTime = 2 s

Time = 0.004

Courant Number mean: 0.0178684 max: 0.123853
DILUPBiCGStab:  Solving for Ux, Initial residual = 0.0604086, Final residual = 2.83895e-12, No Iterations 5
DILUPBiCGStab:  Solving for Uy, Initial residual = 0.0809731, Final residual = 2.51656e-12, No Iterations 5
DILUPBiCGStab:  Solving for Uz, Initial residual = 0.154945, Final residual = 5.67079e-12, No Iterations 5
linear solve U 5025
[OGL LOG] init_host_sparsity_pattern : 3 ms
[OGL LOG] matrix not stored update host matrix
[OGL LOG] update_host_mtx : 1 ms
[OGL LOG] matrix is not yet sorted, sorting host matrix
[OGL LOG] sort_host_mtx_sparsity_pattern : 1 ms
[OGL LOG] sort_host_mtx : 0 ms
[OGL LOG] init_preconditioner : 0 ms
[OGL LOG] solve : 22 ms
nonecudaGKOBiCGStab:  Solving for p, Initial residual = 0.0544848, Final residual = 9.74886e-05, No Iterations 51
linear solve p 30852
time step continuity errors : sum local = 1.06358e-07, global = 2.37037e-20, cumulative = 1.36503e-20
[OGL LOG] init_host_sparsity_pattern : 3 ms
[OGL LOG] matrix not stored update host matrix
[OGL LOG] update_host_mtx : 1 ms
[OGL LOG] matrix is not yet sorted, sorting host matrix
[OGL LOG] sort_host_mtx_sparsity_pattern : 1 ms
[OGL LOG] sort_host_mtx : 0 ms
[OGL LOG] init_preconditioner : 0 ms
[OGL LOG] solve : 19 ms
nonecudaGKOBiCGStab:  Solving for p, Initial residual = 0.0315881, Final residual = 9.74225e-05, No Iterations 44
linear solve p 27808
time step continuity errors : sum local = 1.07187e-07, global = 1.68863e-20, cumulative = 3.05366e-20
ExecutionTime = 2.17 s  ClockTime = 2 s

Time = 0.005

Courant Number mean: 0.0204634 max: 0.135215
DILUPBiCGStab:  Solving for Ux, Initial residual = 0.0403884, Final residual = 1.59963e-12, No Iterations 5
DILUPBiCGStab:  Solving for Uy, Initial residual = 0.054978, Final residual = 1.29617e-12, No Iterations 5
DILUPBiCGStab:  Solving for Uz, Initial residual = 0.106923, Final residual = 3.45048e-12, No Iterations 5
linear solve U 5027
[OGL LOG] init_host_sparsity_pattern : 3 ms
[OGL LOG] matrix not stored update host matrix
[OGL LOG] update_host_mtx : 1 ms
[OGL LOG] matrix is not yet sorted, sorting host matrix
[OGL LOG] sort_host_mtx_sparsity_pattern : 1 ms
[OGL LOG] sort_host_mtx : 0 ms
[OGL LOG] init_preconditioner : 0 ms
[OGL LOG] solve : 18 ms
nonecudaGKOBiCGStab:  Solving for p, Initial residual = 0.035837, Final residual = 9.62737e-05, No Iterations 42
linear solve p 26926
time step continuity errors : sum local = 1.20927e-07, global = 2.92745e-20, cumulative = 5.98112e-20
[OGL LOG] init_host_sparsity_pattern : 3 ms
[OGL LOG] matrix not stored update host matrix
[OGL LOG] update_host_mtx : 1 ms
[OGL LOG] matrix is not yet sorted, sorting host matrix
[OGL LOG] sort_host_mtx_sparsity_pattern : 1 ms
[OGL LOG] sort_host_mtx : 0 ms
[OGL LOG] init_preconditioner : 0 ms
[OGL LOG] solve : 18 ms
nonecudaGKOBiCGStab:  Solving for p, Initial residual = 0.0203081, Final residual = 9.49669e-05, No Iterations 42
linear solve p 26872
time step continuity errors : sum local = 9.00588e-08, global = 1.09577e-20, cumulative = 7.07688e-20
ExecutionTime = 2.23 s  ClockTime = 2 s

Time = 0.006

Courant Number mean: 0.0225085 max: 0.142365
DILUPBiCGStab:  Solving for Ux, Initial residual = 0.0295553, Final residual = 1.18905e-12, No Iterations 5
DILUPBiCGStab:  Solving for Uy, Initial residual = 0.0406285, Final residual = 8.47086e-13, No Iterations 5
DILUPBiCGStab:  Solving for Uz, Initial residual = 0.0812991, Final residual = 2.37683e-12, No Iterations 5
linear solve U 5018
[OGL LOG] init_host_sparsity_pattern : 3 ms
[OGL LOG] matrix not stored update host matrix
[OGL LOG] update_host_mtx : 1 ms
[OGL LOG] matrix is not yet sorted, sorting host matrix
[OGL LOG] sort_host_mtx_sparsity_pattern : 1 ms
[OGL LOG] sort_host_mtx : 0 ms
[OGL LOG] init_preconditioner : 0 ms
[OGL LOG] solve : 19 ms
nonecudaGKOBiCGStab:  Solving for p, Initial residual = 0.0255586, Final residual = 9.90288e-05, No Iterations 44
linear solve p 27618
time step continuity errors : sum local = 1.35827e-07, global = -5.81818e-21, cumulative = 6.49506e-20
[OGL LOG] init_host_sparsity_pattern : 3 ms
[OGL LOG] matrix not stored update host matrix
[OGL LOG] update_host_mtx : 1 ms
[OGL LOG] matrix is not yet sorted, sorting host matrix
[OGL LOG] sort_host_mtx_sparsity_pattern : 1 ms
[OGL LOG] sort_host_mtx : 0 ms
[OGL LOG] init_preconditioner : 0 ms
[OGL LOG] solve : 17 ms
nonecudaGKOBiCGStab:  Solving for p, Initial residual = 0.0142696, Final residual = 9.46947e-05, No Iterations 39
linear solve p 25645
time step continuity errors : sum local = 1.11432e-07, global = 2.34506e-21, cumulative = 6.72957e-20
ExecutionTime = 2.29 s  ClockTime = 2 s

Time = 0.007

Courant Number mean: 0.0241615 max: 0.147196
DILUPBiCGStab:  Solving for Ux, Initial residual = 0.0229853, Final residual = 6.70093e-13, No Iterations 5
DILUPBiCGStab:  Solving for Uy, Initial residual = 0.0317601, Final residual = 6.50088e-13, No Iterations 5
DILUPBiCGStab:  Solving for Uz, Initial residual = 0.0649856, Final residual = 1.74944e-12, No Iterations 5
linear solve U 5007
[OGL LOG] init_host_sparsity_pattern : 3 ms
[OGL LOG] matrix not stored update host matrix
[OGL LOG] update_host_mtx : 1 ms
[OGL LOG] matrix is not yet sorted, sorting host matrix
[OGL LOG] sort_host_mtx_sparsity_pattern : 1 ms
[OGL LOG] sort_host_mtx : 0 ms
[OGL LOG] init_preconditioner : 0 ms
[OGL LOG] solve : 19 ms
nonecudaGKOBiCGStab:  Solving for p, Initial residual = 0.0187865, Final residual = 9.04333e-05, No Iterations 43
linear solve p 27139
time step continuity errors : sum local = 1.37743e-07, global = -1.82867e-20, cumulative = 4.9009e-20
[OGL LOG] init_host_sparsity_pattern : 3 ms
[OGL LOG] matrix not stored update host matrix
[OGL LOG] update_host_mtx : 1 ms
[OGL LOG] matrix is not yet sorted, sorting host matrix
[OGL LOG] sort_host_mtx_sparsity_pattern : 1 ms
[OGL LOG] sort_host_mtx : 0 ms
[OGL LOG] init_preconditioner : 0 ms
[OGL LOG] solve : 17 ms
nonecudaGKOBiCGStab:  Solving for p, Initial residual = 0.0105554, Final residual = 9.67459e-05, No Iterations 39
linear solve p 25594
time step continuity errors : sum local = 1.28598e-07, global = 1.07947e-22, cumulative = 4.91169e-20
ExecutionTime = 2.35 s  ClockTime = 2 s

Time = 0.008

Courant Number mean: 0.0255326 max: 0.150665
DILUPBiCGStab:  Solving for Ux, Initial residual = 0.0184821, Final residual = 3.54326e-13, No Iterations 5
DILUPBiCGStab:  Solving for Uy, Initial residual = 0.0258061, Final residual = 5.0597e-13, No Iterations 5
DILUPBiCGStab:  Solving for Uz, Initial residual = 0.0535902, Final residual = 1.37395e-12, No Iterations 5
linear solve U 5003
[OGL LOG] init_host_sparsity_pattern : 3 ms
[OGL LOG] matrix not stored update host matrix
[OGL LOG] update_host_mtx : 1 ms
[OGL LOG] matrix is not yet sorted, sorting host matrix
[OGL LOG] sort_host_mtx_sparsity_pattern : 1 ms
[OGL LOG] sort_host_mtx : 0 ms
[OGL LOG] init_preconditioner : 0 ms
[OGL LOG] solve : 18 ms
nonecudaGKOBiCGStab:  Solving for p, Initial residual = 0.014874, Final residual = 9.04489e-05, No Iterations 40
linear solve p 26068
time step continuity errors : sum local = 1.45468e-07, global = 8.223e-21, cumulative = 5.734e-20
[OGL LOG] init_host_sparsity_pattern : 3 ms
[OGL LOG] matrix not stored update host matrix
[OGL LOG] update_host_mtx : 1 ms
[OGL LOG] matrix is not yet sorted, sorting host matrix
[OGL LOG] sort_host_mtx_sparsity_pattern : 1 ms
[OGL LOG] sort_host_mtx : 0 ms
[OGL LOG] init_preconditioner : 0 ms
[OGL LOG] solve : 17 ms
nonecudaGKOBiCGStab:  Solving for p, Initial residual = 0.00843455, Final residual = 9.64975e-05, No Iterations 38
linear solve p 25201
time step continuity errors : sum local = 1.39942e-07, global = 2.34125e-20, cumulative = 8.07525e-20
ExecutionTime = 2.41 s  ClockTime = 2 s

Time = 0.009

Courant Number mean: 0.0266828 max: 0.153283
DILUPBiCGStab:  Solving for Ux, Initial residual = 0.0152439, Final residual = 2.02015e-13, No Iterations 5
DILUPBiCGStab:  Solving for Uy, Initial residual = 0.0215584, Final residual = 3.95518e-13, No Iterations 5
DILUPBiCGStab:  Solving for Uz, Initial residual = 0.0452032, Final residual = 1.08805e-12, No Iterations 5
linear solve U 4998
[OGL LOG] init_host_sparsity_pattern : 3 ms
[OGL LOG] matrix not stored update host matrix
[OGL LOG] update_host_mtx : 1 ms
[OGL LOG] matrix is not yet sorted, sorting host matrix
[OGL LOG] sort_host_mtx_sparsity_pattern : 1 ms
[OGL LOG] sort_host_mtx : 0 ms
[OGL LOG] init_preconditioner : 0 ms
[OGL LOG] solve : 18 ms
nonecudaGKOBiCGStab:  Solving for p, Initial residual = 0.0120495, Final residual = 9.88046e-05, No Iterations 41
linear solve p 26276
time step continuity errors : sum local = 1.59172e-07, global = 1.51941e-20, cumulative = 9.59465e-20
[OGL LOG] init_host_sparsity_pattern : 3 ms
[OGL LOG] matrix not stored update host matrix
[OGL LOG] update_host_mtx : 1 ms
[OGL LOG] matrix is not yet sorted, sorting host matrix
[OGL LOG] sort_host_mtx_sparsity_pattern : 1 ms
[OGL LOG] sort_host_mtx : 0 ms
[OGL LOG] init_preconditioner : 0 ms
[OGL LOG] solve : 16 ms
nonecudaGKOBiCGStab:  Solving for p, Initial residual = 0.00694217, Final residual = 8.73078e-05, No Iterations 37
linear solve p 24859
time step continuity errors : sum local = 1.39879e-07, global = 6.12155e-21, cumulative = 1.02068e-19
ExecutionTime = 2.47 s  ClockTime = 2 s

Time = 0.01

Courant Number mean: 0.0276674 max: 0.155336
DILUPBiCGStab:  Solving for Ux, Initial residual = 0.0129006, Final residual = 1.30933e-13, No Iterations 5
DILUPBiCGStab:  Solving for Uy, Initial residual = 0.0183712, Final residual = 3.1023e-13, No Iterations 5
DILUPBiCGStab:  Solving for Uz, Initial residual = 0.0387984, Final residual = 8.79018e-13, No Iterations 5
linear solve U 5004
[OGL LOG] init_host_sparsity_pattern : 3 ms
[OGL LOG] matrix not stored update host matrix
[OGL LOG] update_host_mtx : 1 ms
[OGL LOG] matrix is not yet sorted, sorting host matrix
[OGL LOG] sort_host_mtx_sparsity_pattern : 1 ms
[OGL LOG] sort_host_mtx : 0 ms
[OGL LOG] init_preconditioner : 0 ms
[OGL LOG] solve : 18 ms
nonecudaGKOBiCGStab:  Solving for p, Initial residual = 0.0100184, Final residual = 9.56129e-05, No Iterations 40
linear solve p 26066
time step continuity errors : sum local = 1.61139e-07, global = 1.51697e-20, cumulative = 1.17238e-19
[OGL LOG] init_host_sparsity_pattern : 3 ms
[OGL LOG] matrix not stored update host matrix
[OGL LOG] update_host_mtx : 1 ms
[OGL LOG] matrix is not yet sorted, sorting host matrix
[OGL LOG] sort_host_mtx_sparsity_pattern : 1 ms
[OGL LOG] sort_host_mtx : 0 ms
[OGL LOG] init_preconditioner : 0 ms
[OGL LOG] solve : 16 ms
nonecudaGKOBiCGStab:  Solving for p, Initial residual = 0.00585521, Final residual = 9.31082e-05, No Iterations 36
linear solve p 24356
time step continuity errors : sum local = 1.51808e-07, global = 1.00763e-20, cumulative = 1.27314e-19
ExecutionTime = 2.53 s  ClockTime = 2 s

End

