/*---------------------------------------------------------------------------*\
  =========                 |
  \\      /  F ield         | OpenFOAM: The Open Source CFD Toolbox
   \\    /   O peration     | Website:  https://openfoam.org
    \\  /    A nd           | Version:  8
     \\/     M anipulation  |
\*---------------------------------------------------------------------------*/
Build  : 8-14d69e1ee166
Exec   : icoFoam
Date   : Jul 29 2021
Time   : 08:41:46
Host   : "guyot.icl.utk.edu"
PID    : 163647
I/O    : uncollated
Case   : /home/greole/code/OBR/lidDrivenCavity3D/Variation_mesh/35/Variation_matrix_solver/BiCGStab_NoPrecond_Serial/base
nProcs : 1
sigFpe : Enabling floating point exception trapping (FOAM_SIGFPE).
fileModificationChecking : Monitoring run-time modified files using timeStampMaster (fileModificationSkew 10)
allowSystemOperations : Allowing user-supplied system call operations

// * * * * * * * * * * * * * * * * * * * * * * * * * * * * * * * * * * * * * //
Create time

Create mesh for time = 0

Reading transportProperties

Reading field p

Reading field U

Reading/calculating face flux field phi


Starting time loop

Time = 0.001

Courant Number mean: 0 max: 0
DILUPBiCGStab:  Solving for Ux, Initial residual = 1, Final residual = 2.20563e-06, No Iterations 5
DILUPBiCGStab:  Solving for Uy:  solution singularity
DILUPBiCGStab:  Solving for Uz:  solution singularity
linear solve U 14911
nonePBiCGStab:  Solving for p, Initial residual = 1, Final residual = 8.59555e-05, No Iterations 222
linear solve p 184923
time step continuity errors : sum local = 9.51501e-08, global = 1.04762e-21, cumulative = 1.04762e-21
nonePBiCGStab:  Solving for p, Initial residual = 0.574547, Final residual = 8.63803e-05, No Iterations 224
linear solve p 184973
time step continuity errors : sum local = 1.4504e-07, global = -5.14389e-21, cumulative = -4.09626e-21
ExecutionTime = 0.65 s  ClockTime = 0 s

Time = 0.002

Courant Number mean: 0.0183002 max: 0.192029
DILUPBiCGStab:  Solving for Ux, Initial residual = 0.186349, Final residual = 3.84046e-07, No Iterations 5
DILUPBiCGStab:  Solving for Uy, Initial residual = 0.280692, Final residual = 4.98146e-07, No Iterations 5
DILUPBiCGStab:  Solving for Uz, Initial residual = 0.93756, Final residual = 1.92451e-06, No Iterations 5
linear solve U 28559
nonePBiCGStab:  Solving for p, Initial residual = 0.410617, Final residual = 6.41504e-05, No Iterations 205
linear solve p 173314
time step continuity errors : sum local = 1.01794e-07, global = 8.74955e-21, cumulative = 4.65329e-21
nonePBiCGStab:  Solving for p, Initial residual = 0.312133, Final residual = 3.49659e-05, No Iterations 204
linear solve p 172831
time step continuity errors : sum local = 5.80378e-08, global = -6.68915e-21, cumulative = -2.03586e-21
ExecutionTime = 1.03 s  ClockTime = 1 s

Time = 0.003

Courant Number mean: 0.0280038 max: 0.255328
DILUPBiCGStab:  Solving for Ux, Initial residual = 0.0712122, Final residual = 1.28013e-07, No Iterations 5
DILUPBiCGStab:  Solving for Uy, Initial residual = 0.110135, Final residual = 1.16779e-07, No Iterations 5
DILUPBiCGStab:  Solving for Uz, Initial residual = 0.179864, Final residual = 4.05416e-07, No Iterations 5
linear solve U 27992
nonePBiCGStab:  Solving for p, Initial residual = 0.129441, Final residual = 8.61985e-05, No Iterations 88
linear solve p 74032
time step continuity errors : sum local = 9.06167e-08, global = 1.66792e-20, cumulative = 1.46433e-20
nonePBiCGStab:  Solving for p, Initial residual = 0.0991498, Final residual = 9.21921e-05, No Iterations 76
linear solve p 64946
time step continuity errors : sum local = 1.12901e-07, global = 2.68357e-20, cumulative = 4.1479e-20
ExecutionTime = 1.22 s  ClockTime = 1 s

Time = 0.004

Courant Number mean: 0.0339236 max: 0.277399
DILUPBiCGStab:  Solving for Ux, Initial residual = 0.0415211, Final residual = 6.91991e-08, No Iterations 5
DILUPBiCGStab:  Solving for Uy, Initial residual = 0.0673679, Final residual = 4.48401e-08, No Iterations 5
DILUPBiCGStab:  Solving for Uz, Initial residual = 0.106216, Final residual = 8.35881e-08, No Iterations 5
linear solve U 27852
nonePBiCGStab:  Solving for p, Initial residual = 0.0652699, Final residual = 9.43261e-05, No Iterations 75
linear solve p 64563
time step continuity errors : sum local = 7.42805e-08, global = -1.19749e-20, cumulative = 2.95041e-20
nonePBiCGStab:  Solving for p, Initial residual = 0.0499001, Final residual = 9.91708e-05, No Iterations 71
linear solve p 58860
time step continuity errors : sum local = 1.04934e-07, global = 6.75339e-21, cumulative = 3.62575e-20
ExecutionTime = 1.38 s  ClockTime = 1 s

Time = 0.005

Courant Number mean: 0.0381157 max: 0.287997
DILUPBiCGStab:  Solving for Ux, Initial residual = 0.0285641, Final residual = 1.92776e-08, No Iterations 5
DILUPBiCGStab:  Solving for Uy, Initial residual = 0.0467907, Final residual = 2.62689e-08, No Iterations 5
DILUPBiCGStab:  Solving for Uz, Initial residual = 0.0763705, Final residual = 4.65949e-08, No Iterations 5
linear solve U 28297
nonePBiCGStab:  Solving for p, Initial residual = 0.0387623, Final residual = 8.70718e-05, No Iterations 72
linear solve p 60029
time step continuity errors : sum local = 8.6457e-08, global = -1.7769e-20, cumulative = 1.84884e-20
nonePBiCGStab:  Solving for p, Initial residual = 0.0304563, Final residual = 9.36581e-05, No Iterations 74
linear solve p 63310
time step continuity errors : sum local = 1.0052e-07, global = 1.28435e-20, cumulative = 3.13319e-20
ExecutionTime = 1.55 s  ClockTime = 1 s

Time = 0.006

Courant Number mean: 0.0413843 max: 0.29426
DILUPBiCGStab:  Solving for Ux, Initial residual = 0.0215352, Final residual = 7.71384e-09, No Iterations 5
DILUPBiCGStab:  Solving for Uy, Initial residual = 0.0355623, Final residual = 1.56633e-08, No Iterations 5
DILUPBiCGStab:  Solving for Uz, Initial residual = 0.060493, Final residual = 3.90278e-08, No Iterations 5
linear solve U 29041
nonePBiCGStab:  Solving for p, Initial residual = 0.0268274, Final residual = 7.01424e-05, No Iterations 70
linear solve p 58659
time step continuity errors : sum local = 7.02249e-08, global = -7.26394e-21, cumulative = 2.4068e-20
nonePBiCGStab:  Solving for p, Initial residual = 0.0213237, Final residual = 8.5003e-05, No Iterations 67
linear solve p 57210
time step continuity errors : sum local = 9.01924e-08, global = 1.62927e-20, cumulative = 4.03607e-20
ExecutionTime = 1.71 s  ClockTime = 1 s

Time = 0.007

Courant Number mean: 0.0440599 max: 0.2985
DILUPBiCGStab:  Solving for Ux, Initial residual = 0.0170656, Final residual = 4.24602e-09, No Iterations 5
DILUPBiCGStab:  Solving for Uy, Initial residual = 0.0284114, Final residual = 1.11326e-08, No Iterations 5
DILUPBiCGStab:  Solving for Uz, Initial residual = 0.0498375, Final residual = 3.73664e-08, No Iterations 5
linear solve U 28976
nonePBiCGStab:  Solving for p, Initial residual = 0.0209661, Final residual = 7.61945e-05, No Iterations 70
linear solve p 60104
time step continuity errors : sum local = 7.75636e-08, global = -6.66945e-21, cumulative = 3.36912e-20
nonePBiCGStab:  Solving for p, Initial residual = 0.0168521, Final residual = 9.91582e-05, No Iterations 66
linear solve p 56743
time step continuity errors : sum local = 9.8207e-08, global = 6.27055e-21, cumulative = 3.99618e-20
ExecutionTime = 1.87 s  ClockTime = 2 s

Time = 0.008

Courant Number mean: 0.0462823 max: 0.301602
DILUPBiCGStab:  Solving for Ux, Initial residual = 0.0139521, Final residual = 2.84314e-09, No Iterations 5
DILUPBiCGStab:  Solving for Uy, Initial residual = 0.0234747, Final residual = 7.87295e-09, No Iterations 5
DILUPBiCGStab:  Solving for Uz, Initial residual = 0.0423863, Final residual = 3.16829e-08, No Iterations 5
linear solve U 28218
nonePBiCGStab:  Solving for p, Initial residual = 0.0169623, Final residual = 9.02693e-05, No Iterations 71
linear solve p 61738
time step continuity errors : sum local = 8.62462e-08, global = 2.73637e-20, cumulative = 6.73255e-20
nonePBiCGStab:  Solving for p, Initial residual = 0.0137326, Final residual = 9.18588e-05, No Iterations 69
linear solve p 57640
time step continuity errors : sum local = 9.10937e-08, global = -1.14829e-20, cumulative = 5.58426e-20
ExecutionTime = 2.03 s  ClockTime = 2 s

Time = 0.009

Courant Number mean: 0.0481609 max: 0.303991
DILUPBiCGStab:  Solving for Ux, Initial residual = 0.0117085, Final residual = 2.0996e-09, No Iterations 5
DILUPBiCGStab:  Solving for Uy, Initial residual = 0.0198237, Final residual = 5.90748e-09, No Iterations 5
DILUPBiCGStab:  Solving for Uz, Initial residual = 0.036578, Final residual = 2.40427e-08, No Iterations 5
linear solve U 27866
nonePBiCGStab:  Solving for p, Initial residual = 0.0141331, Final residual = 9.67275e-05, No Iterations 70
linear solve p 58442
time step continuity errors : sum local = 9.01001e-08, global = 2.8493e-20, cumulative = 8.43356e-20
nonePBiCGStab:  Solving for p, Initial residual = 0.0115034, Final residual = 8.11839e-05, No Iterations 67
linear solve p 56043
time step continuity errors : sum local = 8.19357e-08, global = 6.28507e-21, cumulative = 9.06206e-20
ExecutionTime = 2.19 s  ClockTime = 2 s

Time = 0.01

Courant Number mean: 0.0498026 max: 0.305897
DILUPBiCGStab:  Solving for Ux, Initial residual = 0.00997584, Final residual = 1.63513e-09, No Iterations 5
DILUPBiCGStab:  Solving for Uy, Initial residual = 0.017044, Final residual = 4.55212e-09, No Iterations 5
DILUPBiCGStab:  Solving for Uz, Initial residual = 0.0321524, Final residual = 1.74084e-08, No Iterations 5
linear solve U 27906
nonePBiCGStab:  Solving for p, Initial residual = 0.012199, Final residual = 9.8594e-05, No Iterations 70
linear solve p 58460
time step continuity errors : sum local = 9.08437e-08, global = -1.63395e-20, cumulative = 7.42812e-20
nonePBiCGStab:  Solving for p, Initial residual = 0.00997128, Final residual = 7.71169e-05, No Iterations 69
linear solve p 59042
time step continuity errors : sum local = 7.76228e-08, global = 2.89516e-20, cumulative = 1.03233e-19
ExecutionTime = 2.35 s  ClockTime = 2 s

End

