/*---------------------------------------------------------------------------*\
  =========                 |
  \\      /  F ield         | OpenFOAM: The Open Source CFD Toolbox
   \\    /   O peration     | Website:  https://openfoam.org
    \\  /    A nd           | Version:  8
     \\/     M anipulation  |
\*---------------------------------------------------------------------------*/
Build  : 8-ef60d22ea792
Exec   : icoFoam
Date   : Jul 29 2021
Time   : 02:51:51
Host   : "uc2n489.localdomain"
PID    : 3412749
I/O    : uncollated
Case   : /pfs/data5/home/kit/scc/nq7776/code/OBR/lidDrivenCavity3D/Variation_mesh/25/Variation_matrix_solver/BiCGStab_BJ_CUDA/base
nProcs : 1
sigFpe : Enabling floating point exception trapping (FOAM_SIGFPE).
fileModificationChecking : Monitoring run-time modified files using timeStampMaster (fileModificationSkew 10)
allowSystemOperations : Allowing user-supplied system call operations

// * * * * * * * * * * * * * * * * * * * * * * * * * * * * * * * * * * * * * //
Create time

Create mesh for time = 0

Reading transportProperties

Reading field p

Reading field U

Reading/calculating face flux field phi


Starting time loop

Time = 0.001

Courant Number mean: 0 max: 0
DILUPBiCGStab:  Solving for Ux, Initial residual = 1, Final residual = 1.01737e-08, No Iterations 5
DILUPBiCGStab:  Solving for Uy:  solution singularity
DILUPBiCGStab:  Solving for Uz:  solution singularity
linear solve U 5946
[OGL LOG] init_host_sparsity_pattern : 4 ms
[OGL LOG] matrix not stored update host matrix
[OGL LOG] update_host_mtx : 2 ms
[OGL LOG] matrix is not yet sorted, compute sorting idxs
[OGL LOG] compute_sort : 105 ms
[OGL LOG] matrix is not yet sorted, sorting host matrix
[OGL LOG] sort_host_mtx_sparsity_pattern : 2 ms
[OGL LOG] sort_host_mtx : 1 ms
[OGL LOG] init_preconditioner : 2 ms
[OGL LOG] solve : 38 ms
BJcudaGKOBiCGStab:  Solving for p, Initial residual = 1, Final residual = 7.2229e-05, No Iterations 134
linear solve p 887943
time step continuity errors : sum local = 7.42232e-08, global = 6.91151e-21, cumulative = 6.91151e-21
[OGL LOG] init_host_sparsity_pattern : 4 ms
[OGL LOG] matrix not stored update host matrix
[OGL LOG] update_host_mtx : 2 ms
[OGL LOG] matrix is not yet sorted, sorting host matrix
[OGL LOG] sort_host_mtx_sparsity_pattern : 3 ms
[OGL LOG] sort_host_mtx : 1 ms
[OGL LOG] init_preconditioner : 0 ms
[OGL LOG] solve : 33 ms
BJcudaGKOBiCGStab:  Solving for p, Initial residual = 0.481526, Final residual = 9.41325e-05, No Iterations 119
linear solve p 46661
time step continuity errors : sum local = 1.56093e-07, global = 1.06291e-20, cumulative = 1.75406e-20
ExecutionTime = 1.01 s  ClockTime = 1 s

Time = 0.002

Courant Number mean: 0.0119816 max: 0.106546
DILUPBiCGStab:  Solving for Ux, Initial residual = 0.210879, Final residual = 1.44906e-09, No Iterations 5
DILUPBiCGStab:  Solving for Uy, Initial residual = 0.284137, Final residual = 1.36696e-09, No Iterations 5
DILUPBiCGStab:  Solving for Uz, Initial residual = 0.880174, Final residual = 5.23428e-09, No Iterations 5
linear solve U 9793
[OGL LOG] init_host_sparsity_pattern : 4 ms
[OGL LOG] matrix not stored update host matrix
[OGL LOG] update_host_mtx : 1 ms
[OGL LOG] matrix is not yet sorted, sorting host matrix
[OGL LOG] sort_host_mtx_sparsity_pattern : 2 ms
[OGL LOG] sort_host_mtx : 1 ms
[OGL LOG] init_preconditioner : 0 ms
[OGL LOG] solve : 30 ms
BJcudaGKOBiCGStab:  Solving for p, Initial residual = 0.286382, Final residual = 5.32256e-05, No Iterations 105
linear solve p 42092
time step continuity errors : sum local = 8.21117e-08, global = 1.75823e-20, cumulative = 3.51229e-20
[OGL LOG] init_host_sparsity_pattern : 4 ms
[OGL LOG] matrix not stored update host matrix
[OGL LOG] update_host_mtx : 1 ms
[OGL LOG] matrix is not yet sorted, sorting host matrix
[OGL LOG] sort_host_mtx_sparsity_pattern : 2 ms
[OGL LOG] sort_host_mtx : 1 ms
[OGL LOG] init_preconditioner : 0 ms
[OGL LOG] solve : 29 ms
BJcudaGKOBiCGStab:  Solving for p, Initial residual = 0.190064, Final residual = 9.33756e-05, No Iterations 102
linear solve p 41197
time step continuity errors : sum local = 1.5368e-07, global = 1.1423e-20, cumulative = 4.65459e-20
ExecutionTime = 1.11 s  ClockTime = 1 s

Time = 0.003

Courant Number mean: 0.0188589 max: 0.153581
DILUPBiCGStab:  Solving for Ux, Initial residual = 0.0900425, Final residual = 5.47807e-10, No Iterations 5
DILUPBiCGStab:  Solving for Uy, Initial residual = 0.124613, Final residual = 4.85967e-10, No Iterations 5
DILUPBiCGStab:  Solving for Uz, Initial residual = 0.264235, Final residual = 1.69943e-09, No Iterations 5
linear solve U 9824
[OGL LOG] init_host_sparsity_pattern : 4 ms
[OGL LOG] matrix not stored update host matrix
[OGL LOG] update_host_mtx : 1 ms
[OGL LOG] matrix is not yet sorted, sorting host matrix
[OGL LOG] sort_host_mtx_sparsity_pattern : 2 ms
[OGL LOG] sort_host_mtx : 1 ms
[OGL LOG] init_preconditioner : 0 ms
[OGL LOG] solve : 13 ms
BJcudaGKOBiCGStab:  Solving for p, Initial residual = 0.103704, Final residual = 9.99439e-05, No Iterations 46
linear solve p 25346
time step continuity errors : sum local = 1.17628e-07, global = 6.33558e-21, cumulative = 5.28814e-20
[OGL LOG] init_host_sparsity_pattern : 4 ms
[OGL LOG] matrix not stored update host matrix
[OGL LOG] update_host_mtx : 1 ms
[OGL LOG] matrix is not yet sorted, sorting host matrix
[OGL LOG] sort_host_mtx_sparsity_pattern : 2 ms
[OGL LOG] sort_host_mtx : 1 ms
[OGL LOG] init_preconditioner : 0 ms
[OGL LOG] solve : 26 ms
BJcudaGKOBiCGStab:  Solving for p, Initial residual = 0.0709403, Final residual = 9.87139e-05, No Iterations 91
linear solve p 38062
time step continuity errors : sum local = 1.37207e-07, global = -1.83835e-20, cumulative = 3.4498e-20
ExecutionTime = 1.19 s  ClockTime = 1 s

Time = 0.004

Courant Number mean: 0.0233283 max: 0.175141
DILUPBiCGStab:  Solving for Ux, Initial residual = 0.0520746, Final residual = 2.37881e-10, No Iterations 5
DILUPBiCGStab:  Solving for Uy, Initial residual = 0.0742411, Final residual = 1.97785e-10, No Iterations 5
DILUPBiCGStab:  Solving for Uz, Initial residual = 0.12846, Final residual = 5.01308e-10, No Iterations 5
linear solve U 9843
[OGL LOG] init_host_sparsity_pattern : 4 ms
[OGL LOG] matrix not stored update host matrix
[OGL LOG] update_host_mtx : 1 ms
[OGL LOG] matrix is not yet sorted, sorting host matrix
[OGL LOG] sort_host_mtx_sparsity_pattern : 2 ms
[OGL LOG] sort_host_mtx : 1 ms
[OGL LOG] init_preconditioner : 0 ms
[OGL LOG] solve : 12 ms
BJcudaGKOBiCGStab:  Solving for p, Initial residual = 0.0554504, Final residual = 9.99651e-05, No Iterations 41
linear solve p 24117
time step continuity errors : sum local = 9.24877e-08, global = -1.27818e-20, cumulative = 2.17162e-20
[OGL LOG] init_host_sparsity_pattern : 4 ms
[OGL LOG] matrix not stored update host matrix
[OGL LOG] update_host_mtx : 1 ms
[OGL LOG] matrix is not yet sorted, sorting host matrix
[OGL LOG] sort_host_mtx_sparsity_pattern : 2 ms
[OGL LOG] sort_host_mtx : 1 ms
[OGL LOG] init_preconditioner : 0 ms
[OGL LOG] solve : 10 ms
BJcudaGKOBiCGStab:  Solving for p, Initial residual = 0.0373832, Final residual = 8.4077e-05, No Iterations 36
linear solve p 22698
time step continuity errors : sum local = 9.50998e-08, global = 4.35113e-21, cumulative = 2.60673e-20
ExecutionTime = 1.25 s  ClockTime = 2 s

Time = 0.005

Courant Number mean: 0.0265073 max: 0.186526
DILUPBiCGStab:  Solving for Ux, Initial residual = 0.035109, Final residual = 1.72615e-10, No Iterations 5
DILUPBiCGStab:  Solving for Uy, Initial residual = 0.0507798, Final residual = 1.02662e-10, No Iterations 5
DILUPBiCGStab:  Solving for Uz, Initial residual = 0.0907976, Final residual = 2.70904e-10, No Iterations 5
linear solve U 9774
[OGL LOG] init_host_sparsity_pattern : 4 ms
[OGL LOG] matrix not stored update host matrix
[OGL LOG] update_host_mtx : 2 ms
[OGL LOG] matrix is not yet sorted, sorting host matrix
[OGL LOG] sort_host_mtx_sparsity_pattern : 2 ms
[OGL LOG] sort_host_mtx : 1 ms
[OGL LOG] init_preconditioner : 0 ms
[OGL LOG] solve : 12 ms
BJcudaGKOBiCGStab:  Solving for p, Initial residual = 0.0350514, Final residual = 9.44108e-05, No Iterations 40
linear solve p 23952
time step continuity errors : sum local = 8.3291e-08, global = -1.57776e-20, cumulative = 1.02896e-20
[OGL LOG] init_host_sparsity_pattern : 4 ms
[OGL LOG] matrix not stored update host matrix
[OGL LOG] update_host_mtx : 2 ms
[OGL LOG] matrix is not yet sorted, sorting host matrix
[OGL LOG] sort_host_mtx_sparsity_pattern : 2 ms
[OGL LOG] sort_host_mtx : 1 ms
[OGL LOG] init_preconditioner : 0 ms
[OGL LOG] solve : 10 ms
BJcudaGKOBiCGStab:  Solving for p, Initial residual = 0.0232518, Final residual = 8.8349e-05, No Iterations 36
linear solve p 23093
time step continuity errors : sum local = 8.6916e-08, global = 3.10244e-22, cumulative = 1.05999e-20
ExecutionTime = 1.32 s  ClockTime = 2 s

Time = 0.006

Courant Number mean: 0.0289083 max: 0.193355
DILUPBiCGStab:  Solving for Ux, Initial residual = 0.0259309, Final residual = 7.71659e-11, No Iterations 5
DILUPBiCGStab:  Solving for Uy, Initial residual = 0.0379607, Final residual = 6.9553e-11, No Iterations 5
DILUPBiCGStab:  Solving for Uz, Initial residual = 0.0702311, Final residual = 1.79051e-10, No Iterations 5
linear solve U 9858
[OGL LOG] init_host_sparsity_pattern : 4 ms
[OGL LOG] matrix not stored update host matrix
[OGL LOG] update_host_mtx : 1 ms
[OGL LOG] matrix is not yet sorted, sorting host matrix
[OGL LOG] sort_host_mtx_sparsity_pattern : 2 ms
[OGL LOG] sort_host_mtx : 1 ms
[OGL LOG] init_preconditioner : 0 ms
[OGL LOG] solve : 12 ms
BJcudaGKOBiCGStab:  Solving for p, Initial residual = 0.0244965, Final residual = 8.87317e-05, No Iterations 41
linear solve p 24179
time step continuity errors : sum local = 8.40348e-08, global = -2.89802e-20, cumulative = -1.83803e-20
[OGL LOG] init_host_sparsity_pattern : 4 ms
[OGL LOG] matrix not stored update host matrix
[OGL LOG] update_host_mtx : 1 ms
[OGL LOG] matrix is not yet sorted, sorting host matrix
[OGL LOG] sort_host_mtx_sparsity_pattern : 2 ms
[OGL LOG] sort_host_mtx : 1 ms
[OGL LOG] init_preconditioner : 0 ms
[OGL LOG] solve : 11 ms
BJcudaGKOBiCGStab:  Solving for p, Initial residual = 0.0164546, Final residual = 9.8138e-05, No Iterations 37
linear solve p 22825
time step continuity errors : sum local = 8.63839e-08, global = 2.7131e-21, cumulative = -1.56672e-20
ExecutionTime = 1.38 s  ClockTime = 2 s

Time = 0.007

Courant Number mean: 0.0308443 max: 0.197908
DILUPBiCGStab:  Solving for Ux, Initial residual = 0.0203515, Final residual = 3.52193e-11, No Iterations 5
DILUPBiCGStab:  Solving for Uy, Initial residual = 0.0299948, Final residual = 5.18613e-11, No Iterations 5
DILUPBiCGStab:  Solving for Uz, Initial residual = 0.057072, Final residual = 1.28206e-10, No Iterations 5
linear solve U 9703
[OGL LOG] init_host_sparsity_pattern : 4 ms
[OGL LOG] matrix not stored update host matrix
[OGL LOG] update_host_mtx : 2 ms
[OGL LOG] matrix is not yet sorted, sorting host matrix
[OGL LOG] sort_host_mtx_sparsity_pattern : 2 ms
[OGL LOG] sort_host_mtx : 1 ms
[OGL LOG] init_preconditioner : 0 ms
[OGL LOG] solve : 11 ms
BJcudaGKOBiCGStab:  Solving for p, Initial residual = 0.0188022, Final residual = 9.06988e-05, No Iterations 38
linear solve p 23480
time step continuity errors : sum local = 8.92556e-08, global = -4.24204e-21, cumulative = -1.99093e-20
[OGL LOG] init_host_sparsity_pattern : 4 ms
[OGL LOG] matrix not stored update host matrix
[OGL LOG] update_host_mtx : 1 ms
[OGL LOG] matrix is not yet sorted, sorting host matrix
[OGL LOG] sort_host_mtx_sparsity_pattern : 2 ms
[OGL LOG] sort_host_mtx : 1 ms
[OGL LOG] init_preconditioner : 0 ms
[OGL LOG] solve : 11 ms
BJcudaGKOBiCGStab:  Solving for p, Initial residual = 0.0127004, Final residual = 8.44373e-05, No Iterations 38
linear solve p 23417
time step continuity errors : sum local = 7.42968e-08, global = -1.83551e-21, cumulative = -2.17448e-20
ExecutionTime = 1.45 s  ClockTime = 2 s

Time = 0.008

Courant Number mean: 0.0324894 max: 0.201188
DILUPBiCGStab:  Solving for Ux, Initial residual = 0.0165208, Final residual = 1.96456e-11, No Iterations 5
DILUPBiCGStab:  Solving for Uy, Initial residual = 0.0245729, Final residual = 3.95266e-11, No Iterations 5
DILUPBiCGStab:  Solving for Uz, Initial residual = 0.0475842, Final residual = 9.58665e-11, No Iterations 5
linear solve U 9740
[OGL LOG] init_host_sparsity_pattern : 4 ms
[OGL LOG] matrix not stored update host matrix
[OGL LOG] update_host_mtx : 1 ms
[OGL LOG] matrix is not yet sorted, sorting host matrix
[OGL LOG] sort_host_mtx_sparsity_pattern : 2 ms
[OGL LOG] sort_host_mtx : 1 ms
[OGL LOG] init_preconditioner : 0 ms
[OGL LOG] solve : 12 ms
BJcudaGKOBiCGStab:  Solving for p, Initial residual = 0.0148251, Final residual = 7.41426e-05, No Iterations 41
linear solve p 24126
time step continuity errors : sum local = 7.898e-08, global = 9.79061e-21, cumulative = -1.19542e-20
[OGL LOG] init_host_sparsity_pattern : 4 ms
[OGL LOG] matrix not stored update host matrix
[OGL LOG] update_host_mtx : 1 ms
[OGL LOG] matrix is not yet sorted, sorting host matrix
[OGL LOG] sort_host_mtx_sparsity_pattern : 2 ms
[OGL LOG] sort_host_mtx : 1 ms
[OGL LOG] init_preconditioner : 0 ms
[OGL LOG] solve : 11 ms
BJcudaGKOBiCGStab:  Solving for p, Initial residual = 0.0100898, Final residual = 8.73597e-05, No Iterations 39
linear solve p 23510
time step continuity errors : sum local = 8.2521e-08, global = -5.23848e-21, cumulative = -1.71927e-20
ExecutionTime = 1.51 s  ClockTime = 2 s

Time = 0.009

Courant Number mean: 0.0338929 max: 0.203683
DILUPBiCGStab:  Solving for Ux, Initial residual = 0.0137837, Final residual = 1.28121e-11, No Iterations 5
DILUPBiCGStab:  Solving for Uy, Initial residual = 0.0206577, Final residual = 3.0252e-11, No Iterations 5
DILUPBiCGStab:  Solving for Uz, Initial residual = 0.0406197, Final residual = 7.37677e-11, No Iterations 5
linear solve U 9760
[OGL LOG] init_host_sparsity_pattern : 4 ms
[OGL LOG] matrix not stored update host matrix
[OGL LOG] update_host_mtx : 1 ms
[OGL LOG] matrix is not yet sorted, sorting host matrix
[OGL LOG] sort_host_mtx_sparsity_pattern : 2 ms
[OGL LOG] sort_host_mtx : 1 ms
[OGL LOG] init_preconditioner : 0 ms
[OGL LOG] solve : 11 ms
BJcudaGKOBiCGStab:  Solving for p, Initial residual = 0.0125112, Final residual = 9.63208e-05, No Iterations 40
linear solve p 23738
time step continuity errors : sum local = 1.0147e-07, global = 8.84871e-21, cumulative = -8.34394e-21
[OGL LOG] init_host_sparsity_pattern : 4 ms
[OGL LOG] matrix not stored update host matrix
[OGL LOG] update_host_mtx : 1 ms
[OGL LOG] matrix is not yet sorted, sorting host matrix
[OGL LOG] sort_host_mtx_sparsity_pattern : 2 ms
[OGL LOG] sort_host_mtx : 1 ms
[OGL LOG] init_preconditioner : 0 ms
[OGL LOG] solve : 11 ms
BJcudaGKOBiCGStab:  Solving for p, Initial residual = 0.00860997, Final residual = 9.93211e-05, No Iterations 38
linear solve p 23264
time step continuity errors : sum local = 9.78492e-08, global = -3.52376e-20, cumulative = -4.35815e-20
ExecutionTime = 1.57 s  ClockTime = 2 s

Time = 0.01

Courant Number mean: 0.0351034 max: 0.205656
DILUPBiCGStab:  Solving for Ux, Initial residual = 0.0117122, Final residual = 9.29766e-12, No Iterations 5
DILUPBiCGStab:  Solving for Uy, Initial residual = 0.0176947, Final residual = 2.33889e-11, No Iterations 5
DILUPBiCGStab:  Solving for Uz, Initial residual = 0.0352715, Final residual = 5.75961e-11, No Iterations 5
linear solve U 9746
[OGL LOG] init_host_sparsity_pattern : 4 ms
[OGL LOG] matrix not stored update host matrix
[OGL LOG] update_host_mtx : 1 ms
[OGL LOG] matrix is not yet sorted, sorting host matrix
[OGL LOG] sort_host_mtx_sparsity_pattern : 2 ms
[OGL LOG] sort_host_mtx : 1 ms
[OGL LOG] init_preconditioner : 0 ms
[OGL LOG] solve : 10 ms
BJcudaGKOBiCGStab:  Solving for p, Initial residual = 0.010568, Final residual = 9.54195e-05, No Iterations 36
linear solve p 22853
time step continuity errors : sum local = 1.02635e-07, global = -1.37984e-21, cumulative = -4.49614e-20
[OGL LOG] init_host_sparsity_pattern : 4 ms
[OGL LOG] matrix not stored update host matrix
[OGL LOG] update_host_mtx : 1 ms
[OGL LOG] matrix is not yet sorted, sorting host matrix
[OGL LOG] sort_host_mtx_sparsity_pattern : 2 ms
[OGL LOG] sort_host_mtx : 1 ms
[OGL LOG] init_preconditioner : 0 ms
[OGL LOG] solve : 11 ms
BJcudaGKOBiCGStab:  Solving for p, Initial residual = 0.0073051, Final residual = 8.21596e-05, No Iterations 37
linear solve p 23025
time step continuity errors : sum local = 8.69233e-08, global = 2.54193e-21, cumulative = -4.24194e-20
ExecutionTime = 1.64 s  ClockTime = 2 s

End

