/*---------------------------------------------------------------------------*\
  =========                 |
  \\      /  F ield         | OpenFOAM: The Open Source CFD Toolbox
   \\    /   O peration     | Website:  https://openfoam.org
    \\  /    A nd           | Version:  8
     \\/     M anipulation  |
\*---------------------------------------------------------------------------*/
Build  : 8-14d69e1ee166
Exec   : icoFoam
Date   : Jul 29 2021
Time   : 04:58:42
Host   : "guyot.icl.utk.edu"
PID    : 227714
I/O    : uncollated
Case   : /home/greole/code/OBR/lidDrivenCavity3D/Variation_mesh/60/Variation_matrix_solver/BiCGStab_NoPrecond_CUDA/base
nProcs : 1
sigFpe : Enabling floating point exception trapping (FOAM_SIGFPE).
fileModificationChecking : Monitoring run-time modified files using timeStampMaster (fileModificationSkew 10)
allowSystemOperations : Allowing user-supplied system call operations

// * * * * * * * * * * * * * * * * * * * * * * * * * * * * * * * * * * * * * //
Create time

Create mesh for time = 0

Reading transportProperties

Reading field p

Reading field U

Reading/calculating face flux field phi


Starting time loop

Time = 0.001

Courant Number mean: 0 max: 0
DILUPBiCGStab:  Solving for Ux, Initial residual = 1, Final residual = 0.000527977, No Iterations 5
DILUPBiCGStab:  Solving for Uy:  solution singularity
DILUPBiCGStab:  Solving for Uz:  solution singularity
linear solve U 83537
[OGL LOG] init_host_sparsity_pattern : 98 ms
[OGL LOG] matrix not stored update host matrix
[OGL LOG] update_host_mtx : 50 ms
[OGL LOG] matrix is not yet sorted, compute sorting idxs
[OGL LOG] compute_sort : 2071 ms
[OGL LOG] matrix is not yet sorted, sorting host matrix
[OGL LOG] sort_host_mtx_sparsity_pattern : 40 ms
[OGL LOG] sort_host_mtx : 24 ms
[OGL LOG] init_preconditioner : 0 ms
[OGL LOG] solve : 408 ms
nonecudaGKOBiCGStab:  Solving for p, Initial residual = 1, Final residual = 9.25105e-05, No Iterations 378
linear solve p 4336291
time step continuity errors : sum local = 6.84728e-05, global = -3.08627e-20, cumulative = -3.08627e-20
[OGL LOG] init_host_sparsity_pattern : 98 ms
[OGL LOG] matrix not stored update host matrix
[OGL LOG] update_host_mtx : 47 ms
[OGL LOG] matrix is not yet sorted, sorting host matrix
[OGL LOG] sort_host_mtx_sparsity_pattern : 40 ms
[OGL LOG] sort_host_mtx : 24 ms
[OGL LOG] init_preconditioner : 0 ms
[OGL LOG] solve : 405 ms
nonecudaGKOBiCGStab:  Solving for p, Initial residual = 0.716155, Final residual = 8.72142e-05, No Iterations 376
linear solve p 630325
time step continuity errors : sum local = 1.53058e-07, global = -7.44566e-21, cumulative = -3.83084e-20
ExecutionTime = 6.03 s  ClockTime = 6 s

Time = 0.002

Courant Number mean: 0.0335028 max: 0.423482
DILUPBiCGStab:  Solving for Ux, Initial residual = 0.15823, Final residual = 0.000145653, No Iterations 5
DILUPBiCGStab:  Solving for Uy, Initial residual = 0.339964, Final residual = 0.00025173, No Iterations 5
DILUPBiCGStab:  Solving for Uz, Initial residual = 0.944499, Final residual = 0.00102258, No Iterations 5
linear solve U 158210
[OGL LOG] init_host_sparsity_pattern : 95 ms
[OGL LOG] matrix not stored update host matrix
[OGL LOG] update_host_mtx : 48 ms
[OGL LOG] matrix is not yet sorted, sorting host matrix
[OGL LOG] sort_host_mtx_sparsity_pattern : 39 ms
[OGL LOG] sort_host_mtx : 24 ms
[OGL LOG] init_preconditioner : 0 ms
[OGL LOG] solve : 377 ms
nonecudaGKOBiCGStab:  Solving for p, Initial residual = 0.632145, Final residual = 8.38412e-05, No Iterations 351
linear solve p 599723
time step continuity errors : sum local = 1.46111e-07, global = 1.61183e-21, cumulative = -3.66966e-20
[OGL LOG] init_host_sparsity_pattern : 97 ms
[OGL LOG] matrix not stored update host matrix
[OGL LOG] update_host_mtx : 48 ms
[OGL LOG] matrix is not yet sorted, sorting host matrix
[OGL LOG] sort_host_mtx_sparsity_pattern : 39 ms
[OGL LOG] sort_host_mtx : 24 ms
[OGL LOG] init_preconditioner : 0 ms
[OGL LOG] solve : 371 ms
nonecudaGKOBiCGStab:  Solving for p, Initial residual = 0.54788, Final residual = 6.30222e-05, No Iterations 344
linear solve p 595193
time step continuity errors : sum local = 6.96079e-08, global = 1.13657e-20, cumulative = -2.53309e-20
ExecutionTime = 7.47 s  ClockTime = 8 s

Time = 0.003

Courant Number mean: 0.0503066 max: 0.512876
DILUPBiCGStab:  Solving for Ux, Initial residual = 0.0503995, Final residual = 3.31074e-05, No Iterations 5
DILUPBiCGStab:  Solving for Uy, Initial residual = 0.104527, Final residual = 6.97904e-05, No Iterations 5
DILUPBiCGStab:  Solving for Uz, Initial residual = 0.363573, Final residual = 0.00035969, No Iterations 5
linear solve U 157786
[OGL LOG] init_host_sparsity_pattern : 97 ms
[OGL LOG] matrix not stored update host matrix
[OGL LOG] update_host_mtx : 48 ms
[OGL LOG] matrix is not yet sorted, sorting host matrix
[OGL LOG] sort_host_mtx_sparsity_pattern : 39 ms
[OGL LOG] sort_host_mtx : 24 ms
[OGL LOG] init_preconditioner : 0 ms
[OGL LOG] solve : 332 ms
nonecudaGKOBiCGStab:  Solving for p, Initial residual = 0.491169, Final residual = 9.8594e-05, No Iterations 309
linear solve p 556180
time step continuity errors : sum local = 6.95485e-08, global = 1.40404e-20, cumulative = -1.12905e-20
[OGL LOG] init_host_sparsity_pattern : 95 ms
[OGL LOG] matrix not stored update host matrix
[OGL LOG] update_host_mtx : 48 ms
[OGL LOG] matrix is not yet sorted, sorting host matrix
[OGL LOG] sort_host_mtx_sparsity_pattern : 39 ms
[OGL LOG] sort_host_mtx : 24 ms
[OGL LOG] init_preconditioner : 0 ms
[OGL LOG] solve : 354 ms
nonecudaGKOBiCGStab:  Solving for p, Initial residual = 0.430535, Final residual = 9.97853e-05, No Iterations 331
linear solve p 576245
time step continuity errors : sum local = 6.73741e-08, global = -4.89919e-21, cumulative = -1.61897e-20
ExecutionTime = 8.84 s  ClockTime = 9 s

Time = 0.004

Courant Number mean: 0.0595712 max: 0.529581
DILUPBiCGStab:  Solving for Ux, Initial residual = 0.0299836, Final residual = 2.00928e-05, No Iterations 5
DILUPBiCGStab:  Solving for Uy, Initial residual = 0.0673854, Final residual = 2.41174e-05, No Iterations 5
DILUPBiCGStab:  Solving for Uz, Initial residual = 0.204198, Final residual = 0.000140949, No Iterations 5
linear solve U 157575
[OGL LOG] init_host_sparsity_pattern : 95 ms
[OGL LOG] matrix not stored update host matrix
[OGL LOG] update_host_mtx : 48 ms
[OGL LOG] matrix is not yet sorted, sorting host matrix
[OGL LOG] sort_host_mtx_sparsity_pattern : 39 ms
[OGL LOG] sort_host_mtx : 24 ms
[OGL LOG] init_preconditioner : 0 ms
[OGL LOG] solve : 359 ms
nonecudaGKOBiCGStab:  Solving for p, Initial residual = 0.269055, Final residual = 9.75201e-05, No Iterations 335
linear solve p 581657
time step continuity errors : sum local = 8.5973e-08, global = 1.47487e-20, cumulative = -1.44098e-21
[OGL LOG] init_host_sparsity_pattern : 95 ms
[OGL LOG] matrix not stored update host matrix
[OGL LOG] update_host_mtx : 48 ms
[OGL LOG] matrix is not yet sorted, sorting host matrix
[OGL LOG] sort_host_mtx_sparsity_pattern : 41 ms
[OGL LOG] sort_host_mtx : 24 ms
[OGL LOG] init_preconditioner : 0 ms
[OGL LOG] solve : 148 ms
nonecudaGKOBiCGStab:  Solving for p, Initial residual = 0.218615, Final residual = 9.80971e-05, No Iterations 136
linear solve p 371963
time step continuity errors : sum local = 9.30881e-08, global = -4.25651e-21, cumulative = -5.69748e-21
ExecutionTime = 10.04 s  ClockTime = 10 s

Time = 0.005

Courant Number mean: 0.0665839 max: 0.539174
DILUPBiCGStab:  Solving for Ux, Initial residual = 0.0209967, Final residual = 6.90899e-06, No Iterations 5
DILUPBiCGStab:  Solving for Uy, Initial residual = 0.044864, Final residual = 1.78821e-05, No Iterations 5
DILUPBiCGStab:  Solving for Uz, Initial residual = 0.103887, Final residual = 7.25408e-05, No Iterations 5
linear solve U 157998
[OGL LOG] init_host_sparsity_pattern : 95 ms
[OGL LOG] matrix not stored update host matrix
[OGL LOG] update_host_mtx : 48 ms
[OGL LOG] matrix is not yet sorted, sorting host matrix
[OGL LOG] sort_host_mtx_sparsity_pattern : 39 ms
[OGL LOG] sort_host_mtx : 24 ms
[OGL LOG] init_preconditioner : 0 ms
[OGL LOG] solve : 316 ms
nonecudaGKOBiCGStab:  Solving for p, Initial residual = 0.167553, Final residual = 9.36522e-05, No Iterations 293
linear solve p 537811
time step continuity errors : sum local = 8.23281e-08, global = -1.43697e-22, cumulative = -5.84118e-21
[OGL LOG] init_host_sparsity_pattern : 95 ms
[OGL LOG] matrix not stored update host matrix
[OGL LOG] update_host_mtx : 48 ms
[OGL LOG] matrix is not yet sorted, sorting host matrix
[OGL LOG] sort_host_mtx_sparsity_pattern : 39 ms
[OGL LOG] sort_host_mtx : 24 ms
[OGL LOG] init_preconditioner : 0 ms
[OGL LOG] solve : 302 ms
nonecudaGKOBiCGStab:  Solving for p, Initial residual = 0.138106, Final residual = 9.98781e-05, No Iterations 279
linear solve p 524135
time step continuity errors : sum local = 9.54942e-08, global = 1.29224e-20, cumulative = 7.08118e-21
ExecutionTime = 11.34 s  ClockTime = 12 s

Time = 0.006

Courant Number mean: 0.072046 max: 0.544956
DILUPBiCGStab:  Solving for Ux, Initial residual = 0.0161746, Final residual = 6.92384e-06, No Iterations 5
DILUPBiCGStab:  Solving for Uy, Initial residual = 0.0338545, Final residual = 6.43843e-06, No Iterations 5
DILUPBiCGStab:  Solving for Uz, Initial residual = 0.091984, Final residual = 7.07592e-05, No Iterations 5
linear solve U 157735
[OGL LOG] init_host_sparsity_pattern : 95 ms
[OGL LOG] matrix not stored update host matrix
[OGL LOG] update_host_mtx : 48 ms
[OGL LOG] matrix is not yet sorted, sorting host matrix
[OGL LOG] sort_host_mtx_sparsity_pattern : 39 ms
[OGL LOG] sort_host_mtx : 24 ms
[OGL LOG] init_preconditioner : 0 ms
[OGL LOG] solve : 335 ms
nonecudaGKOBiCGStab:  Solving for p, Initial residual = 0.101171, Final residual = 9.63002e-05, No Iterations 312
linear solve p 557325
time step continuity errors : sum local = 6.96875e-08, global = -1.48156e-20, cumulative = -7.73438e-21
[OGL LOG] init_host_sparsity_pattern : 95 ms
[OGL LOG] matrix not stored update host matrix
[OGL LOG] update_host_mtx : 48 ms
[OGL LOG] matrix is not yet sorted, sorting host matrix
[OGL LOG] sort_host_mtx_sparsity_pattern : 39 ms
[OGL LOG] sort_host_mtx : 24 ms
[OGL LOG] init_preconditioner : 0 ms
[OGL LOG] solve : 319 ms
nonecudaGKOBiCGStab:  Solving for p, Initial residual = 0.082455, Final residual = 9.99892e-05, No Iterations 296
linear solve p 540929
time step continuity errors : sum local = 9.49102e-08, global = 2.69265e-20, cumulative = 1.91921e-20
ExecutionTime = 12.69 s  ClockTime = 13 s

Time = 0.007

Courant Number mean: 0.0764992 max: 0.548967
DILUPBiCGStab:  Solving for Ux, Initial residual = 0.0127004, Final residual = 2.47495e-06, No Iterations 5
DILUPBiCGStab:  Solving for Uy, Initial residual = 0.0275495, Final residual = 7.09623e-06, No Iterations 5
DILUPBiCGStab:  Solving for Uz, Initial residual = 0.0747565, Final residual = 5.66729e-05, No Iterations 5
linear solve U 157277
[OGL LOG] init_host_sparsity_pattern : 97 ms
[OGL LOG] matrix not stored update host matrix
[OGL LOG] update_host_mtx : 48 ms
[OGL LOG] matrix is not yet sorted, sorting host matrix
[OGL LOG] sort_host_mtx_sparsity_pattern : 39 ms
[OGL LOG] sort_host_mtx : 24 ms
[OGL LOG] init_preconditioner : 0 ms
[OGL LOG] solve : 342 ms
nonecudaGKOBiCGStab:  Solving for p, Initial residual = 0.0665292, Final residual = 9.4292e-05, No Iterations 319
linear solve p 566352
time step continuity errors : sum local = 4.60812e-08, global = -5.03366e-21, cumulative = 1.41585e-20
[OGL LOG] init_host_sparsity_pattern : 95 ms
[OGL LOG] matrix not stored update host matrix
[OGL LOG] update_host_mtx : 46 ms
[OGL LOG] matrix is not yet sorted, sorting host matrix
[OGL LOG] sort_host_mtx_sparsity_pattern : 39 ms
[OGL LOG] sort_host_mtx : 24 ms
[OGL LOG] init_preconditioner : 0 ms
[OGL LOG] solve : 293 ms
nonecudaGKOBiCGStab:  Solving for p, Initial residual = 0.0552699, Final residual = 8.72886e-05, No Iterations 272
linear solve p 513340
time step continuity errors : sum local = 8.05019e-08, global = 1.55514e-20, cumulative = 2.97099e-20
ExecutionTime = 14.01 s  ClockTime = 14 s

Time = 0.008

Courant Number mean: 0.0802527 max: 0.551952
DILUPBiCGStab:  Solving for Ux, Initial residual = 0.010581, Final residual = 1.97073e-06, No Iterations 5
DILUPBiCGStab:  Solving for Uy, Initial residual = 0.0223394, Final residual = 3.0127e-06, No Iterations 5
DILUPBiCGStab:  Solving for Uz, Initial residual = 0.0570508, Final residual = 3.52561e-05, No Iterations 5
linear solve U 157152
[OGL LOG] init_host_sparsity_pattern : 95 ms
[OGL LOG] matrix not stored update host matrix
[OGL LOG] update_host_mtx : 48 ms
[OGL LOG] matrix is not yet sorted, sorting host matrix
[OGL LOG] sort_host_mtx_sparsity_pattern : 42 ms
[OGL LOG] sort_host_mtx : 24 ms
[OGL LOG] init_preconditioner : 0 ms
[OGL LOG] solve : 319 ms
nonecudaGKOBiCGStab:  Solving for p, Initial residual = 0.0443268, Final residual = 9.90996e-05, No Iterations 297
linear solve p 545327
time step continuity errors : sum local = 6.49614e-08, global = -3.32618e-21, cumulative = 2.63837e-20
[OGL LOG] init_host_sparsity_pattern : 97 ms
[OGL LOG] matrix not stored update host matrix
[OGL LOG] update_host_mtx : 48 ms
[OGL LOG] matrix is not yet sorted, sorting host matrix
[OGL LOG] sort_host_mtx_sparsity_pattern : 39 ms
[OGL LOG] sort_host_mtx : 24 ms
[OGL LOG] init_preconditioner : 0 ms
[OGL LOG] solve : 287 ms
nonecudaGKOBiCGStab:  Solving for p, Initial residual = 0.0372421, Final residual = 9.5229e-05, No Iterations 267
linear solve p 510666
time step continuity errors : sum local = 8.74849e-08, global = 1.06959e-20, cumulative = 3.70796e-20
ExecutionTime = 15.31 s  ClockTime = 16 s

Time = 0.009

Courant Number mean: 0.0834518 max: 0.554254
DILUPBiCGStab:  Solving for Ux, Initial residual = 0.00879193, Final residual = 1.58409e-06, No Iterations 5
DILUPBiCGStab:  Solving for Uy, Initial residual = 0.0192589, Final residual = 3.34806e-06, No Iterations 5
DILUPBiCGStab:  Solving for Uz, Initial residual = 0.051285, Final residual = 3.67565e-05, No Iterations 5
linear solve U 157939
[OGL LOG] init_host_sparsity_pattern : 95 ms
[OGL LOG] matrix not stored update host matrix
[OGL LOG] update_host_mtx : 48 ms
[OGL LOG] matrix is not yet sorted, sorting host matrix
[OGL LOG] sort_host_mtx_sparsity_pattern : 39 ms
[OGL LOG] sort_host_mtx : 24 ms
[OGL LOG] init_preconditioner : 0 ms
[OGL LOG] solve : 287 ms
nonecudaGKOBiCGStab:  Solving for p, Initial residual = 0.0328187, Final residual = 9.07596e-05, No Iterations 266
linear solve p 508935
time step continuity errors : sum local = 8.21188e-08, global = 3.37318e-21, cumulative = 4.04528e-20
[OGL LOG] init_host_sparsity_pattern : 97 ms
[OGL LOG] matrix not stored update host matrix
[OGL LOG] update_host_mtx : 48 ms
[OGL LOG] matrix is not yet sorted, sorting host matrix
[OGL LOG] sort_host_mtx_sparsity_pattern : 39 ms
[OGL LOG] sort_host_mtx : 24 ms
[OGL LOG] init_preconditioner : 0 ms
[OGL LOG] solve : 290 ms
nonecudaGKOBiCGStab:  Solving for p, Initial residual = 0.0285273, Final residual = 8.07493e-05, No Iterations 269
linear solve p 514131
time step continuity errors : sum local = 7.39399e-08, global = 7.13385e-22, cumulative = 4.11662e-20
ExecutionTime = 16.57 s  ClockTime = 17 s

Time = 0.01

Courant Number mean: 0.0862286 max: 0.556119
DILUPBiCGStab:  Solving for Ux, Initial residual = 0.00759194, Final residual = 1.08638e-06, No Iterations 5
DILUPBiCGStab:  Solving for Uy, Initial residual = 0.0162817, Final residual = 1.54908e-06, No Iterations 5
DILUPBiCGStab:  Solving for Uz, Initial residual = 0.0388451, Final residual = 1.97704e-05, No Iterations 5
linear solve U 157955
[OGL LOG] init_host_sparsity_pattern : 95 ms
[OGL LOG] matrix not stored update host matrix
[OGL LOG] update_host_mtx : 48 ms
[OGL LOG] matrix is not yet sorted, sorting host matrix
[OGL LOG] sort_host_mtx_sparsity_pattern : 39 ms
[OGL LOG] sort_host_mtx : 24 ms
[OGL LOG] init_preconditioner : 0 ms
[OGL LOG] solve : 298 ms
nonecudaGKOBiCGStab:  Solving for p, Initial residual = 0.0230149, Final residual = 9.78908e-05, No Iterations 275
linear solve p 519429
time step continuity errors : sum local = 7.33522e-08, global = 3.11197e-20, cumulative = 7.2286e-20
[OGL LOG] init_host_sparsity_pattern : 95 ms
[OGL LOG] matrix not stored update host matrix
[OGL LOG] update_host_mtx : 48 ms
[OGL LOG] matrix is not yet sorted, sorting host matrix
[OGL LOG] sort_host_mtx_sparsity_pattern : 38 ms
[OGL LOG] sort_host_mtx : 24 ms
[OGL LOG] init_preconditioner : 0 ms
[OGL LOG] solve : 138 ms
nonecudaGKOBiCGStab:  Solving for p, Initial residual = 0.0201276, Final residual = 9.90592e-05, No Iterations 127
linear solve p 359505
time step continuity errors : sum local = 5.95898e-08, global = -1.33535e-21, cumulative = 7.09506e-20
ExecutionTime = 17.7 s  ClockTime = 18 s

End

