/*---------------------------------------------------------------------------*\
  =========                 |
  \\      /  F ield         | OpenFOAM: The Open Source CFD Toolbox
   \\    /   O peration     | Website:  https://openfoam.org
    \\  /    A nd           | Version:  8
     \\/     M anipulation  |
\*---------------------------------------------------------------------------*/
Build  : 8-ef60d22ea792
Exec   : icoFoam
Date   : Jul 29 2021
Time   : 02:56:28
Host   : "uc2n489.localdomain"
PID    : 3414067
I/O    : uncollated
Case   : /pfs/data5/home/kit/scc/nq7776/code/OBR/lidDrivenCavity3D/Variation_mesh/65/Variation_matrix_solver/BiCGStab_BJ_CUDA/base
nProcs : 1
sigFpe : Enabling floating point exception trapping (FOAM_SIGFPE).
fileModificationChecking : Monitoring run-time modified files using timeStampMaster (fileModificationSkew 10)
allowSystemOperations : Allowing user-supplied system call operations

// * * * * * * * * * * * * * * * * * * * * * * * * * * * * * * * * * * * * * //
Create time

Create mesh for time = 0

Reading transportProperties

Reading field p

Reading field U

Reading/calculating face flux field phi


Starting time loop

Time = 0.001

Courant Number mean: 0 max: 0
DILUPBiCGStab:  Solving for Ux, Initial residual = 1, Final residual = 0.0009093, No Iterations 5
DILUPBiCGStab:  Solving for Uy:  solution singularity
DILUPBiCGStab:  Solving for Uz:  solution singularity
linear solve U 132420
[OGL LOG] init_host_sparsity_pattern : 77 ms
[OGL LOG] matrix not stored update host matrix
[OGL LOG] update_host_mtx : 40 ms
[OGL LOG] matrix is not yet sorted, compute sorting idxs
[OGL LOG] compute_sort : 2379 ms
[OGL LOG] matrix is not yet sorted, sorting host matrix
[OGL LOG] sort_host_mtx_sparsity_pattern : 54 ms
[OGL LOG] sort_host_mtx : 27 ms
[OGL LOG] init_preconditioner : 30 ms
[OGL LOG] solve : 339 ms
BJcudaGKOBiCGStab:  Solving for p, Initial residual = 1, Final residual = 8.50553e-05, No Iterations 317
linear solve p 3706590
time step continuity errors : sum local = 5.44919e-08, global = 1.0859e-20, cumulative = 1.0859e-20
[OGL LOG] init_host_sparsity_pattern : 73 ms
[OGL LOG] matrix not stored update host matrix
[OGL LOG] update_host_mtx : 40 ms
[OGL LOG] matrix is not yet sorted, sorting host matrix
[OGL LOG] sort_host_mtx_sparsity_pattern : 64 ms
[OGL LOG] sort_host_mtx : 31 ms
[OGL LOG] init_preconditioner : 0 ms
[OGL LOG] solve : 333 ms
BJcudaGKOBiCGStab:  Solving for p, Initial residual = 0.71051, Final residual = 9.46163e-05, No Iterations 315
linear solve p 562126
time step continuity errors : sum local = 5.26924e-05, global = -1.12894e-19, cumulative = -1.02035e-19
ExecutionTime = 5.55 s  ClockTime = 5 s

Time = 0.002

Courant Number mean: 0.0364852 max: 0.471355
DILUPBiCGStab:  Solving for Ux, Initial residual = 0.154517, Final residual = 0.000271642, No Iterations 5
DILUPBiCGStab:  Solving for Uy, Initial residual = 0.3504, Final residual = 0.000506099, No Iterations 5
DILUPBiCGStab:  Solving for Uz, Initial residual = 0.842827, Final residual = 0.00190447, No Iterations 5
linear solve U 247820
[OGL LOG] init_host_sparsity_pattern : 72 ms
[OGL LOG] matrix not stored update host matrix
[OGL LOG] update_host_mtx : 35 ms
[OGL LOG] matrix is not yet sorted, sorting host matrix
[OGL LOG] sort_host_mtx_sparsity_pattern : 50 ms
[OGL LOG] sort_host_mtx : 28 ms
[OGL LOG] init_preconditioner : 0 ms
[OGL LOG] solve : 323 ms
BJcudaGKOBiCGStab:  Solving for p, Initial residual = 0.725835, Final residual = 8.14158e-05, No Iterations 302
linear solve p 527316
time step continuity errors : sum local = 0.0391661, global = 4.57295e-18, cumulative = 4.47091e-18
[OGL LOG] init_host_sparsity_pattern : 72 ms
[OGL LOG] matrix not stored update host matrix
[OGL LOG] update_host_mtx : 35 ms
[OGL LOG] matrix is not yet sorted, sorting host matrix
[OGL LOG] sort_host_mtx_sparsity_pattern : 51 ms
[OGL LOG] sort_host_mtx : 28 ms
[OGL LOG] init_preconditioner : 0 ms
[OGL LOG] solve : 142 ms
BJcudaGKOBiCGStab:  Solving for p, Initial residual = 0.98908, Final residual = 9.159e-05, No Iterations 129
linear solve p 346267
time step continuity errors : sum local = 1.33183e-05, global = -2.24439e-20, cumulative = 4.44847e-18
ExecutionTime = 6.83 s  ClockTime = 7 s

Time = 0.003

Courant Number mean: 0.0558031 max: 0.630508
DILUPBiCGStab:  Solving for Ux, Initial residual = 0.0732176, Final residual = 0.000118507, No Iterations 5
DILUPBiCGStab:  Solving for Uy, Initial residual = 0.294014, Final residual = 0.00117562, No Iterations 5
DILUPBiCGStab:  Solving for Uz, Initial residual = 0.876252, Final residual = 0.00278896, No Iterations 5
linear solve U 247724
[OGL LOG] init_host_sparsity_pattern : 72 ms
[OGL LOG] matrix not stored update host matrix
[OGL LOG] update_host_mtx : 36 ms
[OGL LOG] matrix is not yet sorted, sorting host matrix
[OGL LOG] sort_host_mtx_sparsity_pattern : 51 ms
[OGL LOG] sort_host_mtx : 27 ms
[OGL LOG] init_preconditioner : 0 ms
[OGL LOG] solve : 311 ms
BJcudaGKOBiCGStab:  Solving for p, Initial residual = 0.998182, Final residual = 9.96814e-05, No Iterations 280
linear solve p 517452
time step continuity errors : sum local = 0.0052371, global = 7.60898e-19, cumulative = 5.20937e-18
[OGL LOG] init_host_sparsity_pattern : 72 ms
[OGL LOG] matrix not stored update host matrix
[OGL LOG] update_host_mtx : 35 ms
[OGL LOG] matrix is not yet sorted, sorting host matrix
[OGL LOG] sort_host_mtx_sparsity_pattern : 52 ms
[OGL LOG] sort_host_mtx : 27 ms
[OGL LOG] init_preconditioner : 0 ms
[OGL LOG] solve : 148 ms
BJcudaGKOBiCGStab:  Solving for p, Initial residual = 0.852404, Final residual = 9.90827e-05, No Iterations 136
linear solve p 353538
time step continuity errors : sum local = 1.95947e-05, global = -1.6049e-19, cumulative = 5.04888e-18
ExecutionTime = 8.13 s  ClockTime = 8 s

Time = 0.004

Courant Number mean: 0.157443 max: 1.68394
DILUPBiCGStab:  Solving for Ux, Initial residual = 0.235728, Final residual = 0.000305753, No Iterations 5
DILUPBiCGStab:  Solving for Uy, Initial residual = 0.606656, Final residual = 0.00090298, No Iterations 5
DILUPBiCGStab:  Solving for Uz, Initial residual = 0.81399, Final residual = 0.00138956, No Iterations 5
linear solve U 247701
[OGL LOG] init_host_sparsity_pattern : 72 ms
[OGL LOG] matrix not stored update host matrix
[OGL LOG] update_host_mtx : 35 ms
[OGL LOG] matrix is not yet sorted, sorting host matrix
[OGL LOG] sort_host_mtx_sparsity_pattern : 51 ms
[OGL LOG] sort_host_mtx : 28 ms
[OGL LOG] init_preconditioner : 0 ms
[OGL LOG] solve : 324 ms
BJcudaGKOBiCGStab:  Solving for p, Initial residual = 0.974867, Final residual = 6.35651e-05, No Iterations 291
linear solve p 528383
time step continuity errors : sum local = 0.0483807, global = 1.1292e-16, cumulative = 1.17969e-16
[OGL LOG] init_host_sparsity_pattern : 72 ms
[OGL LOG] matrix not stored update host matrix
[OGL LOG] update_host_mtx : 35 ms
[OGL LOG] matrix is not yet sorted, sorting host matrix
[OGL LOG] sort_host_mtx_sparsity_pattern : 50 ms
[OGL LOG] sort_host_mtx : 28 ms
[OGL LOG] init_preconditioner : 0 ms
[OGL LOG] solve : 303 ms
BJcudaGKOBiCGStab:  Solving for p, Initial residual = 0.766543, Final residual = 9.93445e-05, No Iterations 276
linear solve p 506622
time step continuity errors : sum local = 0.0061457, global = -6.32413e-18, cumulative = 1.11645e-16
ExecutionTime = 9.56 s  ClockTime = 9 s

Time = 0.005

Courant Number mean: 0.0983816 max: 1.14401
DILUPBiCGStab:  Solving for Ux, Initial residual = 0.11818, Final residual = 0.000199606, No Iterations 5
DILUPBiCGStab:  Solving for Uy, Initial residual = 0.394964, Final residual = 0.00136734, No Iterations 5
DILUPBiCGStab:  Solving for Uz, Initial residual = 0.87506, Final residual = 0.00242049, No Iterations 5
linear solve U 247023
[OGL LOG] init_host_sparsity_pattern : 72 ms
[OGL LOG] matrix not stored update host matrix
[OGL LOG] update_host_mtx : 35 ms
[OGL LOG] matrix is not yet sorted, sorting host matrix
[OGL LOG] sort_host_mtx_sparsity_pattern : 51 ms
[OGL LOG] sort_host_mtx : 28 ms
[OGL LOG] init_preconditioner : 0 ms
[OGL LOG] solve : 313 ms
BJcudaGKOBiCGStab:  Solving for p, Initial residual = 0.984426, Final residual = 9.82948e-05, No Iterations 285
linear solve p 517889
time step continuity errors : sum local = 0.0477675, global = -4.15183e-18, cumulative = 1.07493e-16
[OGL LOG] init_host_sparsity_pattern : 75 ms
[OGL LOG] matrix not stored update host matrix
[OGL LOG] update_host_mtx : 37 ms
[OGL LOG] matrix is not yet sorted, sorting host matrix
[OGL LOG] sort_host_mtx_sparsity_pattern : 53 ms
[OGL LOG] sort_host_mtx : 28 ms
[OGL LOG] init_preconditioner : 0 ms
[OGL LOG] solve : 199 ms
BJcudaGKOBiCGStab:  Solving for p, Initial residual = 0.813111, Final residual = 9.99919e-05, No Iterations 181
linear solve p 412039
time step continuity errors : sum local = 8.55011e-05, global = -1.67732e-19, cumulative = 1.07326e-16
ExecutionTime = 10.9 s  ClockTime = 11 s

Time = 0.006

Courant Number mean: 0.232694 max: 3.49823
DILUPBiCGStab:  Solving for Ux, Initial residual = 0.311968, Final residual = 0.000485563, No Iterations 5
DILUPBiCGStab:  Solving for Uy, Initial residual = 0.651522, Final residual = 0.00141554, No Iterations 5
DILUPBiCGStab:  Solving for Uz, Initial residual = 0.82063, Final residual = 0.00193127, No Iterations 5
linear solve U 246968
[OGL LOG] init_host_sparsity_pattern : 72 ms
[OGL LOG] matrix not stored update host matrix
[OGL LOG] update_host_mtx : 35 ms
[OGL LOG] matrix is not yet sorted, sorting host matrix
[OGL LOG] sort_host_mtx_sparsity_pattern : 50 ms
[OGL LOG] sort_host_mtx : 27 ms
[OGL LOG] init_preconditioner : 0 ms
[OGL LOG] solve : 317 ms
BJcudaGKOBiCGStab:  Solving for p, Initial residual = 0.979243, Final residual = 4.94043e-05, No Iterations 290
linear solve p 521244
time step continuity errors : sum local = 0.935163, global = -4.79503e-16, cumulative = -3.72177e-16
[OGL LOG] init_host_sparsity_pattern : 72 ms
[OGL LOG] matrix not stored update host matrix
[OGL LOG] update_host_mtx : 35 ms
[OGL LOG] matrix is not yet sorted, sorting host matrix
[OGL LOG] sort_host_mtx_sparsity_pattern : 51 ms
[OGL LOG] sort_host_mtx : 27 ms
[OGL LOG] init_preconditioner : 0 ms
[OGL LOG] solve : 284 ms
BJcudaGKOBiCGStab:  Solving for p, Initial residual = 0.996399, Final residual = 9.99153e-05, No Iterations 262
linear solve p 487439
time step continuity errors : sum local = 0.000312076, global = -2.16615e-18, cumulative = -3.74343e-16
ExecutionTime = 12.31 s  ClockTime = 12 s

Time = 0.007

Courant Number mean: 0.16209 max: 21.426
DILUPBiCGStab:  Solving for Ux, Initial residual = 0.569231, Final residual = 0.0011086, No Iterations 5
DILUPBiCGStab:  Solving for Uy, Initial residual = 0.770115, Final residual = 0.00288803, No Iterations 5
DILUPBiCGStab:  Solving for Uz, Initial residual = 0.884534, Final residual = 0.00272425, No Iterations 5
linear solve U 247193
[OGL LOG] init_host_sparsity_pattern : 72 ms
[OGL LOG] matrix not stored update host matrix
[OGL LOG] update_host_mtx : 35 ms
[OGL LOG] matrix is not yet sorted, sorting host matrix
[OGL LOG] sort_host_mtx_sparsity_pattern : 50 ms
[OGL LOG] sort_host_mtx : 28 ms
[OGL LOG] init_preconditioner : 0 ms
[OGL LOG] solve : 151 ms
BJcudaGKOBiCGStab:  Solving for p, Initial residual = 0.999111, Final residual = 9.95424e-05, No Iterations 137
linear solve p 354640
time step continuity errors : sum local = 0.000607016, global = -1.36446e-18, cumulative = -3.75708e-16
[OGL LOG] init_host_sparsity_pattern : 74 ms
[OGL LOG] matrix not stored update host matrix
[OGL LOG] update_host_mtx : 35 ms
[OGL LOG] matrix is not yet sorted, sorting host matrix
[OGL LOG] sort_host_mtx_sparsity_pattern : 52 ms
[OGL LOG] sort_host_mtx : 28 ms
[OGL LOG] init_preconditioner : 0 ms
[OGL LOG] solve : 119 ms
BJcudaGKOBiCGStab:  Solving for p, Initial residual = 0.887104, Final residual = 9.89146e-05, No Iterations 108
linear solve p 329157
time step continuity errors : sum local = 0.00118898, global = -8.80332e-19, cumulative = -3.76588e-16
ExecutionTime = 13.4 s  ClockTime = 13 s

Time = 0.008

Courant Number mean: 2.64995 max: 30.6125
DILUPBiCGStab:  Solving for Ux, Initial residual = 0.842149, Final residual = 0.00402966, No Iterations 5
DILUPBiCGStab:  Solving for Uy, Initial residual = 0.88748, Final residual = 0.00381054, No Iterations 5
DILUPBiCGStab:  Solving for Uz, Initial residual = 0.809985, Final residual = 0.00195545, No Iterations 5
linear solve U 247719
[OGL LOG] init_host_sparsity_pattern : 72 ms
[OGL LOG] matrix not stored update host matrix
[OGL LOG] update_host_mtx : 35 ms
[OGL LOG] matrix is not yet sorted, sorting host matrix
[OGL LOG] sort_host_mtx_sparsity_pattern : 51 ms
[OGL LOG] sort_host_mtx : 28 ms
[OGL LOG] init_preconditioner : 0 ms
[OGL LOG] solve : 309 ms
BJcudaGKOBiCGStab:  Solving for p, Initial residual = 0.94969, Final residual = 6.42585e-05, No Iterations 288
linear solve p 513182
time step continuity errors : sum local = 0.000159761, global = 2.44263e-19, cumulative = -3.76344e-16
[OGL LOG] init_host_sparsity_pattern : 72 ms
[OGL LOG] matrix not stored update host matrix
[OGL LOG] update_host_mtx : 35 ms
[OGL LOG] matrix is not yet sorted, sorting host matrix
[OGL LOG] sort_host_mtx_sparsity_pattern : 50 ms
[OGL LOG] sort_host_mtx : 27 ms
[OGL LOG] init_preconditioner : 0 ms
[OGL LOG] solve : 300 ms
BJcudaGKOBiCGStab:  Solving for p, Initial residual = 0.877867, Final residual = 9.31953e-05, No Iterations 274
linear solve p 503845
time step continuity errors : sum local = 0.151616, global = -5.45106e-17, cumulative = -4.30854e-16
ExecutionTime = 14.83 s  ClockTime = 15 s

Time = 0.009

Courant Number mean: 1.79662 max: 17.2533
DILUPBiCGStab:  Solving for Ux, Initial residual = 0.493932, Final residual = 0.00130357, No Iterations 5
DILUPBiCGStab:  Solving for Uy, Initial residual = 0.540112, Final residual = 0.00146902, No Iterations 5
DILUPBiCGStab:  Solving for Uz, Initial residual = 0.673717, Final residual = 0.00186991, No Iterations 5
linear solve U 247118
[OGL LOG] init_host_sparsity_pattern : 72 ms
[OGL LOG] matrix not stored update host matrix
[OGL LOG] update_host_mtx : 35 ms
[OGL LOG] matrix is not yet sorted, sorting host matrix
[OGL LOG] sort_host_mtx_sparsity_pattern : 51 ms
[OGL LOG] sort_host_mtx : 28 ms
[OGL LOG] init_preconditioner : 0 ms
[OGL LOG] solve : 329 ms
BJcudaGKOBiCGStab:  Solving for p, Initial residual = 0.913319, Final residual = 8.2587e-05, No Iterations 304
linear solve p 533420
time step continuity errors : sum local = 0.0239403, global = -8.62921e-17, cumulative = -5.17147e-16
[OGL LOG] init_host_sparsity_pattern : 72 ms
[OGL LOG] matrix not stored update host matrix
[OGL LOG] update_host_mtx : 35 ms
[OGL LOG] matrix is not yet sorted, sorting host matrix
[OGL LOG] sort_host_mtx_sparsity_pattern : 51 ms
[OGL LOG] sort_host_mtx : 27 ms
[OGL LOG] init_preconditioner : 0 ms
[OGL LOG] solve : 327 ms
BJcudaGKOBiCGStab:  Solving for p, Initial residual = 0.810675, Final residual = 9.73883e-05, No Iterations 298
linear solve p 530663
time step continuity errors : sum local = 0.0512478, global = -1.28699e-17, cumulative = -5.30016e-16
ExecutionTime = 16.29 s  ClockTime = 16 s

Time = 0.01

Courant Number mean: 1.55457 max: 12.0729
DILUPBiCGStab:  Solving for Ux, Initial residual = 0.453831, Final residual = 0.00095233, No Iterations 5
DILUPBiCGStab:  Solving for Uy, Initial residual = 0.516089, Final residual = 0.00104224, No Iterations 5
DILUPBiCGStab:  Solving for Uz, Initial residual = 0.736216, Final residual = 0.00238531, No Iterations 5
linear solve U 249742
[OGL LOG] init_host_sparsity_pattern : 73 ms
[OGL LOG] matrix not stored update host matrix
[OGL LOG] update_host_mtx : 37 ms
[OGL LOG] matrix is not yet sorted, sorting host matrix
[OGL LOG] sort_host_mtx_sparsity_pattern : 53 ms
[OGL LOG] sort_host_mtx : 27 ms
[OGL LOG] init_preconditioner : 0 ms
[OGL LOG] solve : 301 ms
BJcudaGKOBiCGStab:  Solving for p, Initial residual = 0.912025, Final residual = 9.87124e-05, No Iterations 278
linear solve p 511374
time step continuity errors : sum local = 0.0482785, global = -4.08962e-17, cumulative = -5.70913e-16
[OGL LOG] init_host_sparsity_pattern : 74 ms
[OGL LOG] matrix not stored update host matrix
[OGL LOG] update_host_mtx : 35 ms
[OGL LOG] matrix is not yet sorted, sorting host matrix
[OGL LOG] sort_host_mtx_sparsity_pattern : 51 ms
[OGL LOG] sort_host_mtx : 28 ms
[OGL LOG] init_preconditioner : 0 ms
[OGL LOG] solve : 301 ms
BJcudaGKOBiCGStab:  Solving for p, Initial residual = 0.81161, Final residual = 9.69994e-05, No Iterations 290
linear solve p 507154
time step continuity errors : sum local = 0.000129558, global = 4.91845e-19, cumulative = -5.70421e-16
ExecutionTime = 17.72 s  ClockTime = 18 s

End

