/*---------------------------------------------------------------------------*\
  =========                 |
  \\      /  F ield         | OpenFOAM: The Open Source CFD Toolbox
   \\    /   O peration     | Website:  https://openfoam.org
    \\  /    A nd           | Version:  8
     \\/     M anipulation  |
\*---------------------------------------------------------------------------*/
Build  : 8-ef60d22ea792
Exec   : icoFoam
Date   : Jul 28 2021
Time   : 18:03:35
Host   : "nla-gpu2.ianm.kit.edu"
PID    : 1577622
I/O    : uncollated
Case   : /home/greole/code/OBR/lidDrivenCavity3D/Variation_mesh/5/Variation_matrix_solver/CG_DIC_Serial/base
nProcs : 1
sigFpe : Enabling floating point exception trapping (FOAM_SIGFPE).
fileModificationChecking : Monitoring run-time modified files using timeStampMaster (fileModificationSkew 10)
allowSystemOperations : Allowing user-supplied system call operations

// * * * * * * * * * * * * * * * * * * * * * * * * * * * * * * * * * * * * * //
Create time

Create mesh for time = 0

Reading transportProperties

Reading field p

Reading field U

Reading/calculating face flux field phi


Starting time loop

Time = 0.001

Courant Number mean: 0 max: 0
DILUPBiCGStab:  Solving for Ux, Initial residual = 1, Final residual = 8.38041e-30, No Iterations 5
DILUPBiCGStab:  Solving for Uy:  solution singularity
DILUPBiCGStab:  Solving for Uz:  solution singularity
linear solve U 145
DICPCG:  Solving for p, Initial residual = 1, Final residual = 4.31095e-05, No Iterations 12
linear solve p 69
time step continuity errors : sum local = 8.11352e-09, global = -5.55452e-22, cumulative = -5.55452e-22
DICPCG:  Solving for p, Initial residual = 0.0544923, Final residual = 4.64552e-05, No Iterations 10
linear solve p 43
time step continuity errors : sum local = 1.73774e-08, global = -2.69661e-21, cumulative = -3.25206e-21
ExecutionTime = 0.06 s  ClockTime = 0 s

Time = 0.002

Courant Number mean: 0.000593121 max: 0.00137348
DILUPBiCGStab:  Solving for Ux, Initial residual = 0.290545, Final residual = 1.32908e-30, No Iterations 5
DILUPBiCGStab:  Solving for Uy, Initial residual = 0.317548, Final residual = 1.13415e-30, No Iterations 5
DILUPBiCGStab:  Solving for Uz, Initial residual = 0.317759, Final residual = 2.81779e-30, No Iterations 5
linear solve U 107
DICPCG:  Solving for p, Initial residual = 0.110403, Final residual = 4.24474e-05, No Iterations 9
linear solve p 35
time step continuity errors : sum local = 1.71916e-08, global = 4.50317e-21, cumulative = 1.25111e-21
DICPCG:  Solving for p, Initial residual = 0.00288509, Final residual = 5.25993e-05, No Iterations 3
linear solve p 23
time step continuity errors : sum local = 2.80715e-08, global = 8.75602e-21, cumulative = 1.00071e-20
ExecutionTime = 0.06 s  ClockTime = 0 s

Time = 0.003

Courant Number mean: 0.00113042 max: 0.00263297
DILUPBiCGStab:  Solving for Ux, Initial residual = 0.161942, Final residual = 7.38172e-31, No Iterations 5
DILUPBiCGStab:  Solving for Uy, Initial residual = 0.186583, Final residual = 6.8002e-31, No Iterations 5
DILUPBiCGStab:  Solving for Uz, Initial residual = 0.228346, Final residual = 1.61662e-30, No Iterations 5
linear solve U 101
DICPCG:  Solving for p, Initial residual = 0.0562095, Final residual = 7.2261e-05, No Iterations 5
linear solve p 28
time step continuity errors : sum local = 5.56975e-08, global = -1.55386e-21, cumulative = 8.45327e-21
DICPCG:  Solving for p, Initial residual = 0.00151494, Final residual = 5.76119e-05, No Iterations 3
linear solve p 22
time step continuity errors : sum local = 4.59963e-08, global = 3.62719e-22, cumulative = 8.81599e-21
ExecutionTime = 0.06 s  ClockTime = 0 s

Time = 0.004

Courant Number mean: 0.00161821 max: 0.0037912
DILUPBiCGStab:  Solving for Ux, Initial residual = 0.108871, Final residual = 5.01606e-31, No Iterations 5
DILUPBiCGStab:  Solving for Uy, Initial residual = 0.1291, Final residual = 4.60798e-31, No Iterations 5
DILUPBiCGStab:  Solving for Uz, Initial residual = 0.177189, Final residual = 1.00468e-30, No Iterations 5
linear solve U 102
DICPCG:  Solving for p, Initial residual = 0.0346651, Final residual = 3.88799e-05, No Iterations 9
linear solve p 35
time step continuity errors : sum local = 2.02379e-08, global = 1.39483e-21, cumulative = 1.02108e-20
DICPCG:  Solving for p, Initial residual = 0.00100864, Final residual = 2.56241e-05, No Iterations 3
linear solve p 23
time step continuity errors : sum local = 1.88179e-08, global = 3.09673e-21, cumulative = 1.33076e-20
ExecutionTime = 0.06 s  ClockTime = 0 s

Time = 0.005

Courant Number mean: 0.00206191 max: 0.00485793
DILUPBiCGStab:  Solving for Ux, Initial residual = 0.0800467, Final residual = 3.73182e-31, No Iterations 5
DILUPBiCGStab:  Solving for Uy, Initial residual = 0.0967228, Final residual = 3.34265e-31, No Iterations 5
DILUPBiCGStab:  Solving for Uz, Initial residual = 0.142991, Final residual = 7.2754e-31, No Iterations 5
linear solve U 102
DICPCG:  Solving for p, Initial residual = 0.0236306, Final residual = 5.95635e-05, No Iterations 5
linear solve p 28
time step continuity errors : sum local = 5.43291e-08, global = 8.83842e-21, cumulative = 2.2146e-20
DICPCG:  Solving for p, Initial residual = 0.000760958, Final residual = 3.99953e-05, No Iterations 3
linear solve p 23
time step continuity errors : sum local = 3.99053e-08, global = 1.45087e-21, cumulative = 2.35969e-20
ExecutionTime = 0.07 s  ClockTime = 0 s

Time = 0.006

Courant Number mean: 0.00246619 max: 0.00584192
DILUPBiCGStab:  Solving for Ux, Initial residual = 0.0620548, Final residual = 2.92108e-31, No Iterations 5
DILUPBiCGStab:  Solving for Uy, Initial residual = 0.0759636, Final residual = 2.54518e-31, No Iterations 5
DILUPBiCGStab:  Solving for Uz, Initial residual = 0.118925, Final residual = 6.13876e-31, No Iterations 5
linear solve U 100
DICPCG:  Solving for p, Initial residual = 0.017246, Final residual = 2.02541e-05, No Iterations 9
linear solve p 35
time step continuity errors : sum local = 1.14542e-08, global = 3.54517e-20, cumulative = 5.90486e-20
DICPCG:  Solving for p, Initial residual = 0.000607869, Final residual = 9.25716e-05, No Iterations 2
linear solve p 20
time step continuity errors : sum local = 5.84009e-08, global = -5.10329e-21, cumulative = 5.39453e-20
ExecutionTime = 0.07 s  ClockTime = 0 s

Time = 0.007

Courant Number mean: 0.00283513 max: 0.00675066
DILUPBiCGStab:  Solving for Ux, Initial residual = 0.0497625, Final residual = 2.35889e-31, No Iterations 5
DILUPBiCGStab:  Solving for Uy, Initial residual = 0.0616597, Final residual = 2.02689e-31, No Iterations 5
DILUPBiCGStab:  Solving for Uz, Initial residual = 0.100836, Final residual = 6.11677e-31, No Iterations 5
linear solve U 100
DICPCG:  Solving for p, Initial residual = 0.0133286, Final residual = 8.89059e-05, No Iterations 4
linear solve p 25
time step continuity errors : sum local = 7.63135e-08, global = -5.5967e-21, cumulative = 4.83486e-20
DICPCG:  Solving for p, Initial residual = 0.000499575, Final residual = 8.30992e-05, No Iterations 2
linear solve p 20
time step continuity errors : sum local = 7.05104e-08, global = -5.07889e-22, cumulative = 4.78407e-20
ExecutionTime = 0.07 s  ClockTime = 0 s

Time = 0.008

Courant Number mean: 0.00317232 max: 0.00759078
DILUPBiCGStab:  Solving for Ux, Initial residual = 0.0409163, Final residual = 1.95739e-31, No Iterations 5
DILUPBiCGStab:  Solving for Uy, Initial residual = 0.0511937, Final residual = 1.66873e-31, No Iterations 5
DILUPBiCGStab:  Solving for Uz, Initial residual = 0.0878285, Final residual = 6.30763e-31, No Iterations 5
linear solve U 101
DICPCG:  Solving for p, Initial residual = 0.0106156, Final residual = 7.567e-05, No Iterations 8
linear solve p 33
time step continuity errors : sum local = 4.54189e-08, global = 1.08576e-20, cumulative = 5.86983e-20
DICPCG:  Solving for p, Initial residual = 0.0004583, Final residual = 6.52256e-05, No Iterations 2
linear solve p 21
time step continuity errors : sum local = 4.44404e-08, global = 4.99121e-21, cumulative = 6.36895e-20
ExecutionTime = 0.07 s  ClockTime = 0 s

Time = 0.009

Courant Number mean: 0.00348091 max: 0.00836824
DILUPBiCGStab:  Solving for Ux, Initial residual = 0.0342282, Final residual = 1.65737e-31, No Iterations 5
DILUPBiCGStab:  Solving for Uy, Initial residual = 0.0433023, Final residual = 1.40488e-31, No Iterations 5
DILUPBiCGStab:  Solving for Uz, Initial residual = 0.0769709, Final residual = 5.73384e-31, No Iterations 5
linear solve U 100
DICPCG:  Solving for p, Initial residual = 0.00874671, Final residual = 6.86279e-05, No Iterations 4
linear solve p 25
time step continuity errors : sum local = 6.42519e-08, global = 1.75859e-20, cumulative = 8.12753e-20
DICPCG:  Solving for p, Initial residual = 0.000402005, Final residual = 6.623e-05, No Iterations 2
linear solve p 20
time step continuity errors : sum local = 6.00792e-08, global = 1.0439e-21, cumulative = 8.23192e-20
ExecutionTime = 0.07 s  ClockTime = 0 s

Time = 0.01

Courant Number mean: 0.00376372 max: 0.00908819
DILUPBiCGStab:  Solving for Ux, Initial residual = 0.0290597, Final residual = 1.43164e-31, No Iterations 5
DILUPBiCGStab:  Solving for Uy, Initial residual = 0.0371093, Final residual = 1.19295e-31, No Iterations 5
DILUPBiCGStab:  Solving for Uz, Initial residual = 0.0688832, Final residual = 5.2129e-31, No Iterations 5
linear solve U 101
DICPCG:  Solving for p, Initial residual = 0.00734017, Final residual = 5.83808e-05, No Iterations 8
linear solve p 32
time step continuity errors : sum local = 3.61041e-08, global = 4.80923e-21, cumulative = 8.71285e-20
DICPCG:  Solving for p, Initial residual = 0.000380747, Final residual = 5.41581e-05, No Iterations 2
linear solve p 20
time step continuity errors : sum local = 3.85327e-08, global = -2.50512e-20, cumulative = 6.20773e-20
ExecutionTime = 0.07 s  ClockTime = 0 s

End

