/*---------------------------------------------------------------------------*\
  =========                 |
  \\      /  F ield         | OpenFOAM: The Open Source CFD Toolbox
   \\    /   O peration     | Website:  https://openfoam.org
    \\  /    A nd           | Version:  8
     \\/     M anipulation  |
\*---------------------------------------------------------------------------*/
Build  : 8-14d69e1ee166
Exec   : icoFoam
Date   : Jul 28 2021
Time   : 18:06:25
Host   : "guyot.icl.utk.edu"
PID    : 227145
I/O    : uncollated
Case   : /home/greole/code/OBR/lidDrivenCavity3D/Variation_mesh/20/Variation_matrix_solver/BiCGStab_NoPrecond_Serial/base
nProcs : 1
sigFpe : Enabling floating point exception trapping (FOAM_SIGFPE).
fileModificationChecking : Monitoring run-time modified files using timeStampMaster (fileModificationSkew 10)
allowSystemOperations : Allowing user-supplied system call operations

// * * * * * * * * * * * * * * * * * * * * * * * * * * * * * * * * * * * * * //
Create time

Create mesh for time = 0

Reading transportProperties

Reading field p

Reading field U

Reading/calculating face flux field phi


Starting time loop

Time = 0.001

Courant Number mean: 0 max: 0
DILUPBiCGStab:  Solving for Ux, Initial residual = 1, Final residual = 1.12203e-10, No Iterations 5
DILUPBiCGStab:  Solving for Uy:  solution singularity
DILUPBiCGStab:  Solving for Uz:  solution singularity
linear solve U 3041
nonePBiCGStab:  Solving for p, Initial residual = 1, Final residual = 2.65831e-05, No Iterations 124
linear solve p 18821
time step continuity errors : sum local = 1.9985e-08, global = -3.82002e-21, cumulative = -3.82002e-21
nonePBiCGStab:  Solving for p, Initial residual = 0.411904, Final residual = 5.82162e-05, No Iterations 117
linear solve p 17519
time step continuity errors : sum local = 9.29195e-08, global = 9.51671e-22, cumulative = -2.86835e-21
ExecutionTime = 0.14 s  ClockTime = 1 s

Time = 0.002

Courant Number mean: 0.00876225 max: 0.0682839
DILUPBiCGStab:  Solving for Ux, Initial residual = 0.225362, Final residual = 1.40291e-11, No Iterations 5
DILUPBiCGStab:  Solving for Uy, Initial residual = 0.289609, Final residual = 1.19248e-11, No Iterations 5
DILUPBiCGStab:  Solving for Uz, Initial residual = 0.818403, Final residual = 4.14689e-11, No Iterations 5
linear solve U 5075
nonePBiCGStab:  Solving for p, Initial residual = 0.212797, Final residual = 9.69803e-05, No Iterations 115
linear solve p 17200
time step continuity errors : sum local = 1.46579e-07, global = 9.26773e-21, cumulative = 6.39938e-21
nonePBiCGStab:  Solving for p, Initial residual = 0.123064, Final residual = 8.95965e-05, No Iterations 111
linear solve p 16541
time step continuity errors : sum local = 1.44902e-07, global = -6.30229e-21, cumulative = 9.70903e-23
ExecutionTime = 0.18 s  ClockTime = 1 s

Time = 0.003

Courant Number mean: 0.0142441 max: 0.104363
DILUPBiCGStab:  Solving for Ux, Initial residual = 0.102531, Final residual = 5.82246e-12, No Iterations 5
DILUPBiCGStab:  Solving for Uy, Initial residual = 0.135223, Final residual = 5.20309e-12, No Iterations 5
DILUPBiCGStab:  Solving for Uz, Initial residual = 0.30583, Final residual = 1.75505e-11, No Iterations 5
linear solve U 5015
nonePBiCGStab:  Solving for p, Initial residual = 0.0919531, Final residual = 9.67695e-05, No Iterations 52
linear solve p 7887
time step continuity errors : sum local = 8.30198e-08, global = -1.24391e-20, cumulative = -1.23421e-20
nonePBiCGStab:  Solving for p, Initial residual = 0.0551659, Final residual = 9.25964e-05, No Iterations 47
linear solve p 7076
time step continuity errors : sum local = 1.30577e-07, global = 1.08497e-20, cumulative = -1.49234e-21
ExecutionTime = 0.21 s  ClockTime = 1 s

Time = 0.004

Courant Number mean: 0.0178684 max: 0.123853
DILUPBiCGStab:  Solving for Ux, Initial residual = 0.0604078, Final residual = 2.83901e-12, No Iterations 5
DILUPBiCGStab:  Solving for Uy, Initial residual = 0.0809746, Final residual = 2.51652e-12, No Iterations 5
DILUPBiCGStab:  Solving for Uz, Initial residual = 0.154876, Final residual = 5.6905e-12, No Iterations 5
linear solve U 5032
nonePBiCGStab:  Solving for p, Initial residual = 0.0544717, Final residual = 9.54222e-05, No Iterations 49
linear solve p 7368
time step continuity errors : sum local = 1.14253e-07, global = -7.61832e-22, cumulative = -2.25417e-21
nonePBiCGStab:  Solving for p, Initial residual = 0.0315741, Final residual = 8.4056e-05, No Iterations 44
linear solve p 6641
time step continuity errors : sum local = 8.59855e-08, global = 1.17141e-20, cumulative = 9.45995e-21
ExecutionTime = 0.23 s  ClockTime = 1 s

Time = 0.005

Courant Number mean: 0.0204634 max: 0.135215
DILUPBiCGStab:  Solving for Ux, Initial residual = 0.0403883, Final residual = 1.59959e-12, No Iterations 5
DILUPBiCGStab:  Solving for Uy, Initial residual = 0.0549781, Final residual = 1.29618e-12, No Iterations 5
DILUPBiCGStab:  Solving for Uz, Initial residual = 0.10692, Final residual = 3.45403e-12, No Iterations 5
linear solve U 5059
nonePBiCGStab:  Solving for p, Initial residual = 0.0358146, Final residual = 9.18399e-05, No Iterations 43
linear solve p 6482
time step continuity errors : sum local = 1.26084e-07, global = 4.07415e-20, cumulative = 5.02015e-20
nonePBiCGStab:  Solving for p, Initial residual = 0.0202829, Final residual = 9.83724e-05, No Iterations 39
linear solve p 5954
time step continuity errors : sum local = 1.02741e-07, global = -1.08998e-20, cumulative = 3.93017e-20
ExecutionTime = 0.25 s  ClockTime = 1 s

Time = 0.006

Courant Number mean: 0.0225085 max: 0.142365
DILUPBiCGStab:  Solving for Ux, Initial residual = 0.0295479, Final residual = 1.18948e-12, No Iterations 5
DILUPBiCGStab:  Solving for Uy, Initial residual = 0.040639, Final residual = 8.46862e-13, No Iterations 5
DILUPBiCGStab:  Solving for Uz, Initial residual = 0.0813433, Final residual = 2.37982e-12, No Iterations 5
linear solve U 5067
nonePBiCGStab:  Solving for p, Initial residual = 0.0255393, Final residual = 9.99662e-05, No Iterations 45
linear solve p 6827
time step continuity errors : sum local = 1.45081e-07, global = 2.18874e-20, cumulative = 6.11891e-20
nonePBiCGStab:  Solving for p, Initial residual = 0.0142567, Final residual = 8.86377e-05, No Iterations 41
linear solve p 6171
time step continuity errors : sum local = 1.14653e-07, global = -3.15735e-21, cumulative = 5.80318e-20
ExecutionTime = 0.27 s  ClockTime = 1 s

Time = 0.007

Courant Number mean: 0.0241616 max: 0.147196
DILUPBiCGStab:  Solving for Ux, Initial residual = 0.0229891, Final residual = 6.69943e-13, No Iterations 5
DILUPBiCGStab:  Solving for Uy, Initial residual = 0.0317538, Final residual = 6.50197e-13, No Iterations 5
DILUPBiCGStab:  Solving for Uz, Initial residual = 0.0649174, Final residual = 1.74915e-12, No Iterations 5
linear solve U 5068
nonePBiCGStab:  Solving for p, Initial residual = 0.0187722, Final residual = 9.68948e-05, No Iterations 42
linear solve p 6314
time step continuity errors : sum local = 1.5262e-07, global = -2.44742e-20, cumulative = 3.35576e-20
nonePBiCGStab:  Solving for p, Initial residual = 0.0105428, Final residual = 8.43888e-05, No Iterations 39
linear solve p 5868
time step continuity errors : sum local = 1.26315e-07, global = -1.81194e-21, cumulative = 3.17456e-20
ExecutionTime = 0.29 s  ClockTime = 1 s

Time = 0.008

Courant Number mean: 0.0255327 max: 0.150665
DILUPBiCGStab:  Solving for Ux, Initial residual = 0.018477, Final residual = 3.54416e-13, No Iterations 5
DILUPBiCGStab:  Solving for Uy, Initial residual = 0.0258139, Final residual = 5.05765e-13, No Iterations 5
DILUPBiCGStab:  Solving for Uz, Initial residual = 0.0536155, Final residual = 1.37554e-12, No Iterations 5
linear solve U 4999
nonePBiCGStab:  Solving for p, Initial residual = 0.0148581, Final residual = 9.5535e-05, No Iterations 45
linear solve p 6872
time step continuity errors : sum local = 1.58586e-07, global = 5.82335e-21, cumulative = 3.7569e-20
nonePBiCGStab:  Solving for p, Initial residual = 0.00843582, Final residual = 9.54815e-05, No Iterations 39
linear solve p 5888
time step continuity errors : sum local = 1.47306e-07, global = 2.53721e-20, cumulative = 6.29411e-20
ExecutionTime = 0.31 s  ClockTime = 1 s

Time = 0.009

Courant Number mean: 0.0266828 max: 0.153283
DILUPBiCGStab:  Solving for Ux, Initial residual = 0.0152484, Final residual = 2.01981e-13, No Iterations 5
DILUPBiCGStab:  Solving for Uy, Initial residual = 0.0215517, Final residual = 3.95654e-13, No Iterations 5
DILUPBiCGStab:  Solving for Uz, Initial residual = 0.0451629, Final residual = 1.08638e-12, No Iterations 5
linear solve U 5041
nonePBiCGStab:  Solving for p, Initial residual = 0.0120555, Final residual = 9.45203e-05, No Iterations 42
linear solve p 6411
time step continuity errors : sum local = 1.6402e-07, global = -3.74332e-20, cumulative = 2.55079e-20
nonePBiCGStab:  Solving for p, Initial residual = 0.00695076, Final residual = 9.93853e-05, No Iterations 39
linear solve p 5834
time step continuity errors : sum local = 1.59361e-07, global = 3.60733e-21, cumulative = 2.91152e-20
ExecutionTime = 0.33 s  ClockTime = 1 s

Time = 0.01

Courant Number mean: 0.0276675 max: 0.155336
DILUPBiCGStab:  Solving for Ux, Initial residual = 0.0129041, Final residual = 1.30922e-13, No Iterations 5
DILUPBiCGStab:  Solving for Uy, Initial residual = 0.0183659, Final residual = 3.10332e-13, No Iterations 5
DILUPBiCGStab:  Solving for Uz, Initial residual = 0.0387562, Final residual = 8.78431e-13, No Iterations 5
linear solve U 5019
nonePBiCGStab:  Solving for p, Initial residual = 0.0100135, Final residual = 9.49775e-05, No Iterations 42
linear solve p 6311
time step continuity errors : sum local = 1.69021e-07, global = -3.37763e-20, cumulative = -4.66106e-21
nonePBiCGStab:  Solving for p, Initial residual = 0.00585058, Final residual = 9.82943e-05, No Iterations 36
linear solve p 5426
time step continuity errors : sum local = 1.64889e-07, global = -9.24953e-21, cumulative = -1.39106e-20
ExecutionTime = 0.35 s  ClockTime = 1 s

End

