/*---------------------------------------------------------------------------*\
  =========                 |
  \\      /  F ield         | OpenFOAM: The Open Source CFD Toolbox
   \\    /   O peration     | Website:  https://openfoam.org
    \\  /    A nd           | Version:  8
     \\/     M anipulation  |
\*---------------------------------------------------------------------------*/
Build  : 8-40a5a48f630f
Exec   : icoFoam
Date   : Jul 28 2021
Time   : 13:17:52
Host   : "uc2n446.localdomain"
PID    : 416839
I/O    : uncollated
Case   : /pfs/data5/home/kit/scc/nq7776/code/OBR/lidDrivenCavity3D/Variation_mesh/30/Variation_matrix_solver/CG_BJ_OMP/base
nProcs : 1
sigFpe : Enabling floating point exception trapping (FOAM_SIGFPE).
fileModificationChecking : Monitoring run-time modified files using timeStampMaster (fileModificationSkew 10)
allowSystemOperations : Allowing user-supplied system call operations

// * * * * * * * * * * * * * * * * * * * * * * * * * * * * * * * * * * * * * //
Create time

Create mesh for time = 0

Reading transportProperties

Reading field p

Reading field U

Reading/calculating face flux field phi


Starting time loop

Time = 0.001

Courant Number mean: 0 max: 0
nonePBiCGStab:  Solving for Ux, Initial residual = 1, Final residual = 0.00734209, No Iterations 5
nonePBiCGStab:  Solving for Uy, Initial residual = 0, Final residual = 0, No Iterations 0
nonePBiCGStab:  Solving for Uz, Initial residual = 0, Final residual = 0, No Iterations 0
linear solve U 5
[OGL LOG] init_host_sparsity_pattern : 7 ms
[OGL LOG] matrix not stored update host matrix
[OGL LOG] update_host_mtx : 3 ms
[OGL LOG] matrix is not yet sorted, compute sorting idxs
[OGL LOG] compute_sort : 190 ms
[OGL LOG] matrix is not yet sorted, sorting host matrix
[OGL LOG] sort_host_mtx_sparsity_pattern : 5 ms
[OGL LOG] sort_host_mtx : 3 ms
[OGL LOG] init_preconditioner : 1 ms
 CG create  precond 
[OGL LOG] solve : 87 ms
BJompGKOCG:  Solving for p, Initial residual = 1, Final residual = 9.52082e-05, No Iterations 195
linear solve p 307
time step continuity errors : sum local = 5.04881e-08, global = 5.83439e-21, cumulative = 5.83439e-21
[OGL LOG] init_host_sparsity_pattern : 8 ms
[OGL LOG] matrix not stored update host matrix
[OGL LOG] update_host_mtx : 3 ms
[OGL LOG] matrix is not yet sorted, sorting host matrix
[OGL LOG] sort_host_mtx_sparsity_pattern : 5 ms
[OGL LOG] sort_host_mtx : 2 ms
[OGL LOG] init_preconditioner : 0 ms
 CG create  precond 
[OGL LOG] solve : 84 ms
BJompGKOCG:  Solving for p, Initial residual = 0.531066, Final residual = 8.36783e-05, No Iterations 190
linear solve p 107
time step continuity errors : sum local = 6.96605e-08, global = -1.99039e-21, cumulative = 3.844e-21
ExecutionTime = 4.01 s  ClockTime = 1 s

Time = 0.002

Courant Number mean: 0.015082 max: 0.148277
nonePBiCGStab:  Solving for Ux, Initial residual = 0.195864, Final residual = 0.00210031, No Iterations 5
nonePBiCGStab:  Solving for Uy, Initial residual = 0.281604, Final residual = 0.00191331, No Iterations 5
nonePBiCGStab:  Solving for Uz, Initial residual = 0.925262, Final residual = 0.0100556, No Iterations 5
linear solve U 10
[OGL LOG] init_host_sparsity_pattern : 6 ms
[OGL LOG] matrix not stored update host matrix
[OGL LOG] update_host_mtx : 3 ms
[OGL LOG] matrix is not yet sorted, sorting host matrix
[OGL LOG] sort_host_mtx_sparsity_pattern : 5 ms
[OGL LOG] sort_host_mtx : 2 ms
[OGL LOG] init_preconditioner : 0 ms
 CG create  precond 
[OGL LOG] solve : 78 ms
BJompGKOCG:  Solving for p, Initial residual = 0.350905, Final residual = 9.89427e-05, No Iterations 178
linear solve p 100
time step continuity errors : sum local = 7.76016e-08, global = 2.08346e-21, cumulative = 5.92746e-21
[OGL LOG] init_host_sparsity_pattern : 7 ms
[OGL LOG] matrix not stored update host matrix
[OGL LOG] update_host_mtx : 3 ms
[OGL LOG] matrix is not yet sorted, sorting host matrix
[OGL LOG] sort_host_mtx_sparsity_pattern : 5 ms
[OGL LOG] sort_host_mtx : 2 ms
[OGL LOG] init_preconditioner : 0 ms
 CG create  precond 
[OGL LOG] solve : 77 ms
BJompGKOCG:  Solving for p, Initial residual = 0.251249, Final residual = 9.89217e-05, No Iterations 174
linear solve p 98
time step continuity errors : sum local = 8.17192e-08, global = 1.50216e-20, cumulative = 2.09491e-20
ExecutionTime = 7.39 s  ClockTime = 1 s

Time = 0.003

Courant Number mean: 0.0234541 max: 0.204101
nonePBiCGStab:  Solving for Ux, Initial residual = 0.0796763, Final residual = 0.000580123, No Iterations 5
nonePBiCGStab:  Solving for Uy, Initial residual = 0.116765, Final residual = 0.000486165, No Iterations 5
nonePBiCGStab:  Solving for Uz, Initial residual = 0.209415, Final residual = 0.00162473, No Iterations 5
linear solve U 9
[OGL LOG] init_host_sparsity_pattern : 7 ms
[OGL LOG] matrix not stored update host matrix
[OGL LOG] update_host_mtx : 3 ms
[OGL LOG] matrix is not yet sorted, sorting host matrix
[OGL LOG] sort_host_mtx_sparsity_pattern : 5 ms
[OGL LOG] sort_host_mtx : 2 ms
[OGL LOG] init_preconditioner : 0 ms
 CG create  precond 
[OGL LOG] solve : 75 ms
BJompGKOCG:  Solving for p, Initial residual = 0.110581, Final residual = 9.26769e-05, No Iterations 170
linear solve p 98
time step continuity errors : sum local = 6.76532e-08, global = 1.69894e-20, cumulative = 3.79385e-20
[OGL LOG] init_host_sparsity_pattern : 7 ms
[OGL LOG] matrix not stored update host matrix
[OGL LOG] update_host_mtx : 3 ms
[OGL LOG] matrix is not yet sorted, sorting host matrix
[OGL LOG] sort_host_mtx_sparsity_pattern : 5 ms
[OGL LOG] sort_host_mtx : 2 ms
[OGL LOG] init_preconditioner : 0 ms
 CG create  precond 
[OGL LOG] solve : 71 ms
BJompGKOCG:  Solving for p, Initial residual = 0.0812491, Final residual = 9.60276e-05, No Iterations 167
linear solve p 93
time step continuity errors : sum local = 7.13927e-08, global = -2.42272e-20, cumulative = 1.37112e-20
ExecutionTime = 10.59 s  ClockTime = 1 s

Time = 0.004

Courant Number mean: 0.0285809 max: 0.226294
nonePBiCGStab:  Solving for Ux, Initial residual = 0.0461247, Final residual = 0.000145535, No Iterations 5
nonePBiCGStab:  Solving for Uy, Initial residual = 0.070298, Final residual = 0.000144949, No Iterations 5
nonePBiCGStab:  Solving for Uz, Initial residual = 0.113106, Final residual = 0.000653271, No Iterations 5
linear solve U 9
[OGL LOG] init_host_sparsity_pattern : 7 ms
[OGL LOG] matrix not stored update host matrix
[OGL LOG] update_host_mtx : 3 ms
[OGL LOG] matrix is not yet sorted, sorting host matrix
[OGL LOG] sort_host_mtx_sparsity_pattern : 5 ms
[OGL LOG] sort_host_mtx : 2 ms
[OGL LOG] init_preconditioner : 0 ms
 CG create  precond 
[OGL LOG] solve : 70 ms
BJompGKOCG:  Solving for p, Initial residual = 0.0568485, Final residual = 9.75942e-05, No Iterations 165
linear solve p 92
time step continuity errors : sum local = 7.1524e-08, global = 5.60841e-21, cumulative = 1.93196e-20
[OGL LOG] init_host_sparsity_pattern : 7 ms
[OGL LOG] matrix not stored update host matrix
[OGL LOG] update_host_mtx : 4 ms
[OGL LOG] matrix is not yet sorted, sorting host matrix
[OGL LOG] sort_host_mtx_sparsity_pattern : 5 ms
[OGL LOG] sort_host_mtx : 2 ms
[OGL LOG] init_preconditioner : 0 ms
 CG create  precond 
[OGL LOG] solve : 69 ms
BJompGKOCG:  Solving for p, Initial residual = 0.0416334, Final residual = 8.56069e-05, No Iterations 163
linear solve p 92
time step continuity errors : sum local = 6.37891e-08, global = -6.47927e-21, cumulative = 1.28404e-20
ExecutionTime = 13.64 s  ClockTime = 1 s

Time = 0.005

Courant Number mean: 0.0322797 max: 0.237314
nonePBiCGStab:  Solving for Ux, Initial residual = 0.031519, Final residual = 6.67275e-05, No Iterations 5
nonePBiCGStab:  Solving for Uy, Initial residual = 0.0484219, Final residual = 7.36456e-05, No Iterations 5
nonePBiCGStab:  Solving for Uz, Initial residual = 0.0820557, Final residual = 0.000332747, No Iterations 5
linear solve U 9
[OGL LOG] init_host_sparsity_pattern : 7 ms
[OGL LOG] matrix not stored update host matrix
[OGL LOG] update_host_mtx : 3 ms
[OGL LOG] matrix is not yet sorted, sorting host matrix
[OGL LOG] sort_host_mtx_sparsity_pattern : 5 ms
[OGL LOG] sort_host_mtx : 2 ms
[OGL LOG] init_preconditioner : 0 ms
 CG create  precond 
[OGL LOG] solve : 68 ms
BJompGKOCG:  Solving for p, Initial residual = 0.0352476, Final residual = 9.02485e-05, No Iterations 161
linear solve p 91
time step continuity errors : sum local = 6.73102e-08, global = 4.44772e-21, cumulative = 1.72881e-20
[OGL LOG] init_host_sparsity_pattern : 7 ms
[OGL LOG] matrix not stored update host matrix
[OGL LOG] update_host_mtx : 4 ms
[OGL LOG] matrix is not yet sorted, sorting host matrix
[OGL LOG] sort_host_mtx_sparsity_pattern : 5 ms
[OGL LOG] sort_host_mtx : 2 ms
[OGL LOG] init_preconditioner : 0 ms
 CG create  precond 
[OGL LOG] solve : 69 ms
BJompGKOCG:  Solving for p, Initial residual = 0.0260229, Final residual = 8.75072e-05, No Iterations 159
linear solve p 91
time step continuity errors : sum local = 6.58145e-08, global = 1.08507e-20, cumulative = 2.81388e-20
ExecutionTime = 16.66 s  ClockTime = 2 s

Time = 0.006

Courant Number mean: 0.0351495 max: 0.243824
nonePBiCGStab:  Solving for Ux, Initial residual = 0.0235736, Final residual = 3.63085e-05, No Iterations 5
nonePBiCGStab:  Solving for Uy, Initial residual = 0.0365748, Final residual = 4.30063e-05, No Iterations 5
nonePBiCGStab:  Solving for Uz, Initial residual = 0.0648598, Final residual = 0.00019253, No Iterations 5
linear solve U 9
[OGL LOG] init_host_sparsity_pattern : 6 ms
[OGL LOG] matrix not stored update host matrix
[OGL LOG] update_host_mtx : 3 ms
[OGL LOG] matrix is not yet sorted, sorting host matrix
[OGL LOG] sort_host_mtx_sparsity_pattern : 5 ms
[OGL LOG] sort_host_mtx : 2 ms
[OGL LOG] init_preconditioner : 0 ms
 CG create  precond 
[OGL LOG] solve : 68 ms
BJompGKOCG:  Solving for p, Initial residual = 0.0251411, Final residual = 9.02094e-05, No Iterations 159
linear solve p 89
time step continuity errors : sum local = 6.80611e-08, global = 2.16547e-20, cumulative = 4.97935e-20
[OGL LOG] init_host_sparsity_pattern : 7 ms
[OGL LOG] matrix not stored update host matrix
[OGL LOG] update_host_mtx : 3 ms
[OGL LOG] matrix is not yet sorted, sorting host matrix
[OGL LOG] sort_host_mtx_sparsity_pattern : 5 ms
[OGL LOG] sort_host_mtx : 2 ms
[OGL LOG] init_preconditioner : 0 ms
 CG create  precond 
[OGL LOG] solve : 33 ms
BJompGKOCG:  Solving for p, Initial residual = 0.0186841, Final residual = 9.974e-05, No Iterations 77
linear solve p 55
time step continuity errors : sum local = 9.43277e-08, global = 9.42495e-22, cumulative = 5.0736e-20
ExecutionTime = 18.95 s  ClockTime = 2 s

Time = 0.007

Courant Number mean: 0.0374504 max: 0.248188
nonePBiCGStab:  Solving for Ux, Initial residual = 0.0186034, Final residual = 2.25291e-05, No Iterations 5
nonePBiCGStab:  Solving for Uy, Initial residual = 0.0291199, Final residual = 3.07872e-05, No Iterations 5
nonePBiCGStab:  Solving for Uz, Initial residual = 0.0537504, Final residual = 0.000195934, No Iterations 5
linear solve U 9
[OGL LOG] init_host_sparsity_pattern : 7 ms
[OGL LOG] matrix not stored update host matrix
[OGL LOG] update_host_mtx : 3 ms
[OGL LOG] matrix is not yet sorted, sorting host matrix
[OGL LOG] sort_host_mtx_sparsity_pattern : 5 ms
[OGL LOG] sort_host_mtx : 2 ms
[OGL LOG] init_preconditioner : 0 ms
 CG create  precond 
[OGL LOG] solve : 32 ms
BJompGKOCG:  Solving for p, Initial residual = 0.0197133, Final residual = 9.81664e-05, No Iterations 76
linear solve p 54
time step continuity errors : sum local = 9.15502e-08, global = 2.36936e-20, cumulative = 7.44295e-20
[OGL LOG] init_host_sparsity_pattern : 7 ms
[OGL LOG] matrix not stored update host matrix
[OGL LOG] update_host_mtx : 3 ms
[OGL LOG] matrix is not yet sorted, sorting host matrix
[OGL LOG] sort_host_mtx_sparsity_pattern : 5 ms
[OGL LOG] sort_host_mtx : 2 ms
[OGL LOG] init_preconditioner : 0 ms
 CG create  precond 
[OGL LOG] solve : 34 ms
BJompGKOCG:  Solving for p, Initial residual = 0.0147593, Final residual = 9.97095e-05, No Iterations 77
linear solve p 56
time step continuity errors : sum local = 9.74944e-08, global = 9.53703e-21, cumulative = 8.39665e-20
ExecutionTime = 20.55 s  ClockTime = 2 s

Time = 0.008

Courant Number mean: 0.0393459 max: 0.25136
nonePBiCGStab:  Solving for Ux, Initial residual = 0.015175, Final residual = 1.28079e-05, No Iterations 5
nonePBiCGStab:  Solving for Uy, Initial residual = 0.0239547, Final residual = 1.92681e-05, No Iterations 5
nonePBiCGStab:  Solving for Uz, Initial residual = 0.0450569, Final residual = 9.25964e-05, No Iterations 5
linear solve U 9
[OGL LOG] init_host_sparsity_pattern : 6 ms
[OGL LOG] matrix not stored update host matrix
[OGL LOG] update_host_mtx : 3 ms
[OGL LOG] matrix is not yet sorted, sorting host matrix
[OGL LOG] sort_host_mtx_sparsity_pattern : 5 ms
[OGL LOG] sort_host_mtx : 2 ms
[OGL LOG] init_preconditioner : 0 ms
 CG create  precond 
[OGL LOG] solve : 36 ms
BJompGKOCG:  Solving for p, Initial residual = 0.0158167, Final residual = 8.78508e-05, No Iterations 72
linear solve p 58
time step continuity errors : sum local = 7.68768e-08, global = -3.21112e-20, cumulative = 5.18553e-20
[OGL LOG] init_host_sparsity_pattern : 6 ms
[OGL LOG] matrix not stored update host matrix
[OGL LOG] update_host_mtx : 3 ms
[OGL LOG] matrix is not yet sorted, sorting host matrix
[OGL LOG] sort_host_mtx_sparsity_pattern : 5 ms
[OGL LOG] sort_host_mtx : 2 ms
[OGL LOG] init_preconditioner : 0 ms
 CG create  precond 
[OGL LOG] solve : 31 ms
BJompGKOCG:  Solving for p, Initial residual = 0.0119402, Final residual = 9.58468e-05, No Iterations 70
linear solve p 54
time step continuity errors : sum local = 9.07333e-08, global = -2.33932e-21, cumulative = 4.9516e-20
ExecutionTime = 22.19 s  ClockTime = 2 s

Time = 0.009

Courant Number mean: 0.0409906 max: 0.253798
nonePBiCGStab:  Solving for Ux, Initial residual = 0.0127146, Final residual = 8.51732e-06, No Iterations 5
nonePBiCGStab:  Solving for Uy, Initial residual = 0.0201991, Final residual = 1.36464e-05, No Iterations 5
nonePBiCGStab:  Solving for Uz, Initial residual = 0.0385909, Final residual = 7.60281e-05, No Iterations 5
linear solve U 9
[OGL LOG] init_host_sparsity_pattern : 7 ms
[OGL LOG] matrix not stored update host matrix
[OGL LOG] update_host_mtx : 3 ms
[OGL LOG] matrix is not yet sorted, sorting host matrix
[OGL LOG] sort_host_mtx_sparsity_pattern : 5 ms
[OGL LOG] sort_host_mtx : 2 ms
[OGL LOG] init_preconditioner : 0 ms
 CG create  precond 
[OGL LOG] solve : 32 ms
BJompGKOCG:  Solving for p, Initial residual = 0.0131758, Final residual = 9.20862e-05, No Iterations 70
linear solve p 54
time step continuity errors : sum local = 8.0198e-08, global = 1.43711e-20, cumulative = 6.38871e-20
[OGL LOG] init_host_sparsity_pattern : 7 ms
[OGL LOG] matrix not stored update host matrix
[OGL LOG] update_host_mtx : 3 ms
[OGL LOG] matrix is not yet sorted, sorting host matrix
[OGL LOG] sort_host_mtx_sparsity_pattern : 5 ms
[OGL LOG] sort_host_mtx : 2 ms
[OGL LOG] init_preconditioner : 0 ms
 CG create  precond 
[OGL LOG] solve : 30 ms
BJompGKOCG:  Solving for p, Initial residual = 0.00999223, Final residual = 9.79232e-05, No Iterations 67
linear solve p 52
time step continuity errors : sum local = 9.01095e-08, global = -2.18955e-20, cumulative = 4.19917e-20
ExecutionTime = 23.73 s  ClockTime = 2 s

Time = 0.01

Courant Number mean: 0.0424255 max: 0.255736
nonePBiCGStab:  Solving for Ux, Initial residual = 0.0108335, Final residual = 6.17451e-06, No Iterations 5
nonePBiCGStab:  Solving for Uy, Initial residual = 0.0173256, Final residual = 1.00462e-05, No Iterations 5
nonePBiCGStab:  Solving for Uz, Initial residual = 0.0335195, Final residual = 5.66563e-05, No Iterations 5
linear solve U 9
[OGL LOG] init_host_sparsity_pattern : 7 ms
[OGL LOG] matrix not stored update host matrix
[OGL LOG] update_host_mtx : 3 ms
[OGL LOG] matrix is not yet sorted, sorting host matrix
[OGL LOG] sort_host_mtx_sparsity_pattern : 5 ms
[OGL LOG] sort_host_mtx : 2 ms
[OGL LOG] init_preconditioner : 0 ms
 CG create  precond 
[OGL LOG] solve : 31 ms
BJompGKOCG:  Solving for p, Initial residual = 0.0111613, Final residual = 9.61537e-05, No Iterations 68
linear solve p 53
time step continuity errors : sum local = 8.18743e-08, global = 2.64267e-20, cumulative = 6.84183e-20
[OGL LOG] init_host_sparsity_pattern : 7 ms
[OGL LOG] matrix not stored update host matrix
[OGL LOG] update_host_mtx : 3 ms
[OGL LOG] matrix is not yet sorted, sorting host matrix
[OGL LOG] sort_host_mtx_sparsity_pattern : 5 ms
[OGL LOG] sort_host_mtx : 2 ms
[OGL LOG] init_preconditioner : 0 ms
 CG create  precond 
[OGL LOG] solve : 30 ms
BJompGKOCG:  Solving for p, Initial residual = 0.00850591, Final residual = 9.60307e-05, No Iterations 66
linear solve p 52
time step continuity errors : sum local = 8.64949e-08, global = -2.21415e-20, cumulative = 4.62768e-20
ExecutionTime = 25.23 s  ClockTime = 2 s

End

