/*---------------------------------------------------------------------------*\
  =========                 |
  \\      /  F ield         | OpenFOAM: The Open Source CFD Toolbox
   \\    /   O peration     | Website:  https://openfoam.org
    \\  /    A nd           | Version:  8
     \\/     M anipulation  |
\*---------------------------------------------------------------------------*/
Build  : 8-14d69e1ee166
Exec   : icoFoam
Date   : Jul 29 2021
Time   : 09:00:01
Host   : "guyot.icl.utk.edu"
PID    : 202580
I/O    : uncollated
Case   : /home/greole/code/OBR/lidDrivenCavity3D/Variation_mesh/65/Variation_matrix_solver/CG_DIC_Serial/base
nProcs : 1
sigFpe : Enabling floating point exception trapping (FOAM_SIGFPE).
fileModificationChecking : Monitoring run-time modified files using timeStampMaster (fileModificationSkew 10)
allowSystemOperations : Allowing user-supplied system call operations

// * * * * * * * * * * * * * * * * * * * * * * * * * * * * * * * * * * * * * //
Create time

Create mesh for time = 0

Reading transportProperties

Reading field p

Reading field U

Reading/calculating face flux field phi


Starting time loop

Time = 0.001

Courant Number mean: 0 max: 0
DILUPBiCGStab:  Solving for Ux, Initial residual = 1, Final residual = 0.0009093, No Iterations 5
DILUPBiCGStab:  Solving for Uy:  solution singularity
DILUPBiCGStab:  Solving for Uz:  solution singularity
linear solve U 107461
DICPCG:  Solving for p, Initial residual = 1, Final residual = 9.0066e-05, No Iterations 163
linear solve p 868910
time step continuity errors : sum local = 5.29132e-08, global = 9.09201e-21, cumulative = 9.09201e-21
DICPCG:  Solving for p, Initial residual = 0.710532, Final residual = 9.55689e-05, No Iterations 161
linear solve p 874223
time step continuity errors : sum local = 7.55984e-08, global = -4.86661e-21, cumulative = 4.2254e-21
ExecutionTime = 3.17 s  ClockTime = 3 s

Time = 0.002

Courant Number mean: 0.036459 max: 0.470838
DILUPBiCGStab:  Solving for Ux, Initial residual = 0.154387, Final residual = 0.000271565, No Iterations 5
DILUPBiCGStab:  Solving for Uy, Initial residual = 0.350437, Final residual = 0.000506093, No Iterations 5
DILUPBiCGStab:  Solving for Uz, Initial residual = 0.982776, Final residual = 0.00176917, No Iterations 5
linear solve U 204206
DICPCG:  Solving for p, Initial residual = 0.645928, Final residual = 8.63686e-05, No Iterations 150
linear solve p 814297
time step continuity errors : sum local = 7.23662e-08, global = -5.57252e-21, cumulative = -1.34712e-21
DICPCG:  Solving for p, Initial residual = 0.569359, Final residual = 9.13986e-05, No Iterations 149
linear solve p 826852
time step continuity errors : sum local = 7.84697e-08, global = -6.06575e-21, cumulative = -7.41287e-21
ExecutionTime = 5.12 s  ClockTime = 5 s

Time = 0.003

Courant Number mean: 0.0547095 max: 0.564538
DILUPBiCGStab:  Solving for Ux, Initial residual = 0.0506122, Final residual = 5.48086e-05, No Iterations 5
DILUPBiCGStab:  Solving for Uy, Initial residual = 0.109589, Final residual = 0.000120725, No Iterations 5
DILUPBiCGStab:  Solving for Uz, Initial residual = 0.388337, Final residual = 0.000649675, No Iterations 5
linear solve U 204599
DICPCG:  Solving for p, Initial residual = 0.547655, Final residual = 9.58535e-05, No Iterations 157
linear solve p 846185
time step continuity errors : sum local = 5.61367e-08, global = -9.90654e-21, cumulative = -1.73194e-20
DICPCG:  Solving for p, Initial residual = 0.491388, Final residual = 8.23689e-05, No Iterations 157
linear solve p 859630
time step continuity errors : sum local = 4.68659e-08, global = -1.39806e-20, cumulative = -3.13e-20
ExecutionTime = 7.15 s  ClockTime = 7 s

Time = 0.004

Courant Number mean: 0.0645905 max: 0.579603
DILUPBiCGStab:  Solving for Ux, Initial residual = 0.0290688, Final residual = 3.32266e-05, No Iterations 5
DILUPBiCGStab:  Solving for Uy, Initial residual = 0.0718661, Final residual = 5.55062e-05, No Iterations 5
DILUPBiCGStab:  Solving for Uz, Initial residual = 0.208492, Final residual = 0.000261023, No Iterations 5
linear solve U 203634
DICPCG:  Solving for p, Initial residual = 0.31666, Final residual = 8.95369e-05, No Iterations 147
linear solve p 799245
time step continuity errors : sum local = 4.65701e-08, global = -7.45594e-21, cumulative = -3.87559e-20
DICPCG:  Solving for p, Initial residual = 0.261896, Final residual = 9.19331e-05, No Iterations 147
linear solve p 800464
time step continuity errors : sum local = 4.83996e-08, global = -6.11807e-22, cumulative = -3.93677e-20
ExecutionTime = 9.06 s  ClockTime = 9 s

Time = 0.005

Courant Number mean: 0.0722267 max: 0.589261
DILUPBiCGStab:  Solving for Ux, Initial residual = 0.0206397, Final residual = 1.46585e-05, No Iterations 5
DILUPBiCGStab:  Solving for Uy, Initial residual = 0.0445487, Final residual = 3.50909e-05, No Iterations 5
DILUPBiCGStab:  Solving for Uz, Initial residual = 0.0746286, Final residual = 7.53804e-05, No Iterations 5
linear solve U 200181
DICPCG:  Solving for p, Initial residual = 0.214012, Final residual = 9.15935e-05, No Iterations 146
linear solve p 789843
time step continuity errors : sum local = 4.17293e-08, global = -6.82543e-21, cumulative = -4.61932e-20
DICPCG:  Solving for p, Initial residual = 0.179788, Final residual = 9.83898e-05, No Iterations 75
linear solve p 416638
time step continuity errors : sum local = 5.49837e-08, global = -1.08667e-20, cumulative = -5.70598e-20
ExecutionTime = 10.58 s  ClockTime = 11 s

Time = 0.006

Courant Number mean: 0.0781054 max: 0.595021
DILUPBiCGStab:  Solving for Ux, Initial residual = 0.0153296, Final residual = 1.31633e-05, No Iterations 5
DILUPBiCGStab:  Solving for Uy, Initial residual = 0.0342268, Final residual = 1.4769e-05, No Iterations 5
DILUPBiCGStab:  Solving for Uz, Initial residual = 0.0686465, Final residual = 6.76874e-05, No Iterations 5
linear solve U 203265
DICPCG:  Solving for p, Initial residual = 0.126982, Final residual = 9.04075e-05, No Iterations 145
linear solve p 787219
time step continuity errors : sum local = 4.04028e-08, global = -3.82429e-20, cumulative = -9.53028e-20
DICPCG:  Solving for p, Initial residual = 0.104046, Final residual = 9.47742e-05, No Iterations 69
linear solve p 379006
time step continuity errors : sum local = 5.08188e-08, global = 1.09503e-20, cumulative = -8.43525e-20
ExecutionTime = 12.06 s  ClockTime = 12 s

Time = 0.007

Courant Number mean: 0.0829417 max: 0.598973
DILUPBiCGStab:  Solving for Ux, Initial residual = 0.0122262, Final residual = 5.67103e-06, No Iterations 5
DILUPBiCGStab:  Solving for Uy, Initial residual = 0.0269823, Final residual = 1.50375e-05, No Iterations 5
DILUPBiCGStab:  Solving for Uz, Initial residual = 0.0508521, Final residual = 4.58748e-05, No Iterations 5
linear solve U 199914
DICPCG:  Solving for p, Initial residual = 0.0847083, Final residual = 7.38126e-05, No Iterations 145
linear solve p 784499
time step continuity errors : sum local = 3.19775e-08, global = 1.08283e-20, cumulative = -7.35242e-20
DICPCG:  Solving for p, Initial residual = 0.0701593, Final residual = 8.7438e-05, No Iterations 144
linear solve p 792548
time step continuity errors : sum local = 3.78752e-08, global = 1.102e-21, cumulative = -7.24222e-20
ExecutionTime = 13.94 s  ClockTime = 14 s

Time = 0.008

Courant Number mean: 0.0869905 max: 0.601974
DILUPBiCGStab:  Solving for Ux, Initial residual = 0.0100316, Final residual = 4.65111e-06, No Iterations 5
DILUPBiCGStab:  Solving for Uy, Initial residual = 0.0222, Final residual = 6.47031e-06, No Iterations 5
DILUPBiCGStab:  Solving for Uz, Initial residual = 0.0423581, Final residual = 2.90782e-05, No Iterations 5
linear solve U 203117
DICPCG:  Solving for p, Initial residual = 0.0543021, Final residual = 8.67068e-05, No Iterations 66
linear solve p 362155
time step continuity errors : sum local = 4.02946e-08, global = -1.27644e-20, cumulative = -8.51866e-20
DICPCG:  Solving for p, Initial residual = 0.0450881, Final residual = 9.49586e-05, No Iterations 65
linear solve p 356614
time step continuity errors : sum local = 4.26983e-08, global = 3.99576e-21, cumulative = -8.11908e-20
ExecutionTime = 14.98 s  ClockTime = 15 s

Time = 0.009

Courant Number mean: 0.0904653 max: 0.604263
DILUPBiCGStab:  Solving for Ux, Initial residual = 0.00841005, Final residual = 2.58597e-06, No Iterations 5
DILUPBiCGStab:  Solving for Uy, Initial residual = 0.0187867, Final residual = 6.40929e-06, No Iterations 5
DILUPBiCGStab:  Solving for Uz, Initial residual = 0.0359321, Final residual = 2.06578e-05, No Iterations 5
linear solve U 200163
DICPCG:  Solving for p, Initial residual = 0.0385906, Final residual = 9.41926e-05, No Iterations 65
linear solve p 356233
time step continuity errors : sum local = 4.65681e-08, global = -2.4371e-20, cumulative = -1.05562e-19
DICPCG:  Solving for p, Initial residual = 0.0326053, Final residual = 9.68652e-05, No Iterations 64
linear solve p 356541
time step continuity errors : sum local = 4.23446e-08, global = -3.59456e-21, cumulative = -1.09156e-19
ExecutionTime = 16 s  ClockTime = 16 s

Time = 0.01

Courant Number mean: 0.0934678 max: 0.606124
DILUPBiCGStab:  Solving for Ux, Initial residual = 0.00720084, Final residual = 2.08477e-06, No Iterations 5
DILUPBiCGStab:  Solving for Uy, Initial residual = 0.0161249, Final residual = 2.59174e-06, No Iterations 5
DILUPBiCGStab:  Solving for Uz, Initial residual = 0.0310595, Final residual = 1.69107e-05, No Iterations 5
linear solve U 203332
DICPCG:  Solving for p, Initial residual = 0.0273061, Final residual = 9.4866e-05, No Iterations 64
linear solve p 351457
time step continuity errors : sum local = 4.49991e-08, global = 8.90118e-21, cumulative = -1.00255e-19
DICPCG:  Solving for p, Initial residual = 0.0234712, Final residual = 8.95481e-05, No Iterations 63
linear solve p 346629
time step continuity errors : sum local = 4.004e-08, global = 7.46588e-21, cumulative = -9.27893e-20
ExecutionTime = 17.01 s  ClockTime = 17 s

End

