/*---------------------------------------------------------------------------*\
  =========                 |
  \\      /  F ield         | OpenFOAM: The Open Source CFD Toolbox
   \\    /   O peration     | Website:  https://openfoam.org
    \\  /    A nd           | Version:  8
     \\/     M anipulation  |
\*---------------------------------------------------------------------------*/
Build  : 8-ef60d22ea792
Exec   : icoFoam
Date   : Jul 28 2021
Time   : 21:55:37
Host   : "uc2n452.localdomain"
PID    : 1905872
I/O    : uncollated
Case   : /pfs/data5/home/kit/scc/nq7776/code/OBR/lidDrivenCavity3D/Variation_mesh/5/Variation_matrix_solver/BiCGStab_BJ_OMP/base
nProcs : 1
sigFpe : Enabling floating point exception trapping (FOAM_SIGFPE).
fileModificationChecking : Monitoring run-time modified files using timeStampMaster (fileModificationSkew 10)
allowSystemOperations : Allowing user-supplied system call operations

// * * * * * * * * * * * * * * * * * * * * * * * * * * * * * * * * * * * * * //
Create time

Create mesh for time = 0

Reading transportProperties

Reading field p

Reading field U

Reading/calculating face flux field phi


Starting time loop

Time = 0.001

Courant Number mean: 0 max: 0
DILUPBiCGStab:  Solving for Ux, Initial residual = 1, Final residual = 8.38041e-30, No Iterations 5
DILUPBiCGStab:  Solving for Uy:  solution singularity
DILUPBiCGStab:  Solving for Uz:  solution singularity
linear solve U 133
[OGL LOG] init_host_sparsity_pattern : 0 ms
[OGL LOG] matrix not stored update host matrix
[OGL LOG] update_host_mtx : 0 ms
[OGL LOG] matrix is not yet sorted, compute sorting idxs
[OGL LOG] compute_sort : 0 ms
[OGL LOG] matrix is not yet sorted, sorting host matrix
[OGL LOG] sort_host_mtx_sparsity_pattern : 0 ms
[OGL LOG] sort_host_mtx : 0 ms
[OGL LOG] init_preconditioner : 0 ms
[OGL LOG] solve : 1 ms
BJompGKOBiCGStab:  Solving for p, Initial residual = 1, Final residual = 4.56547e-05, No Iterations 17
linear solve p 4324
time step continuity errors : sum local = 9.70326e-08, global = 1.30364e-21, cumulative = 1.30364e-21
[OGL LOG] init_host_sparsity_pattern : 0 ms
[OGL LOG] matrix not stored update host matrix
[OGL LOG] update_host_mtx : 0 ms
[OGL LOG] matrix is not yet sorted, sorting host matrix
[OGL LOG] sort_host_mtx_sparsity_pattern : 0 ms
[OGL LOG] sort_host_mtx : 0 ms
[OGL LOG] init_preconditioner : 0 ms
[OGL LOG] solve : 1 ms
BJompGKOBiCGStab:  Solving for p, Initial residual = 0.0545482, Final residual = 1.23462e-05, No Iterations 14
linear solve p 1491
time step continuity errors : sum local = 6.48619e-07, global = -1.13076e-21, cumulative = 1.72881e-22
ExecutionTime = 0.05 s  ClockTime = 0 s

Time = 0.002

Courant Number mean: 0.000593276 max: 0.00137349
DILUPBiCGStab:  Solving for Ux, Initial residual = 0.29062, Final residual = 1.32974e-30, No Iterations 5
DILUPBiCGStab:  Solving for Uy, Initial residual = 0.317532, Final residual = 1.13404e-30, No Iterations 5
DILUPBiCGStab:  Solving for Uz, Initial residual = 0.343104, Final residual = 2.35426e-30, No Iterations 5
linear solve U 105
[OGL LOG] init_host_sparsity_pattern : 0 ms
[OGL LOG] matrix not stored update host matrix
[OGL LOG] update_host_mtx : 0 ms
[OGL LOG] matrix is not yet sorted, sorting host matrix
[OGL LOG] sort_host_mtx_sparsity_pattern : 0 ms
[OGL LOG] sort_host_mtx : 0 ms
[OGL LOG] init_preconditioner : 0 ms
[OGL LOG] solve : 1 ms
BJompGKOBiCGStab:  Solving for p, Initial residual = 0.112189, Final residual = 1.11007e-05, No Iterations 14
linear solve p 1484
time step continuity errors : sum local = 8.84879e-07, global = 6.89724e-21, cumulative = 7.07012e-21
[OGL LOG] init_host_sparsity_pattern : 0 ms
[OGL LOG] matrix not stored update host matrix
[OGL LOG] update_host_mtx : 0 ms
[OGL LOG] matrix is not yet sorted, sorting host matrix
[OGL LOG] sort_host_mtx_sparsity_pattern : 0 ms
[OGL LOG] sort_host_mtx : 0 ms
[OGL LOG] init_preconditioner : 0 ms
[OGL LOG] solve : 0 ms
BJompGKOBiCGStab:  Solving for p, Initial residual = 0.0046834, Final residual = 9.85874e-05, No Iterations 8
linear solve p 955
time step continuity errors : sum local = 8.72651e-08, global = 2.3616e-21, cumulative = 9.43172e-21
ExecutionTime = 0.07 s  ClockTime = 0 s

Time = 0.003

Courant Number mean: 0.00113044 max: 0.00263305
DILUPBiCGStab:  Solving for Ux, Initial residual = 0.161851, Final residual = 7.374e-31, No Iterations 5
DILUPBiCGStab:  Solving for Uy, Initial residual = 0.186725, Final residual = 6.8048e-31, No Iterations 5
DILUPBiCGStab:  Solving for Uz, Initial residual = 0.264819, Final residual = 1.50729e-30, No Iterations 5
linear solve U 99
[OGL LOG] init_host_sparsity_pattern : 0 ms
[OGL LOG] matrix not stored update host matrix
[OGL LOG] update_host_mtx : 0 ms
[OGL LOG] matrix is not yet sorted, sorting host matrix
[OGL LOG] sort_host_mtx_sparsity_pattern : 0 ms
[OGL LOG] sort_host_mtx : 0 ms
[OGL LOG] init_preconditioner : 0 ms
[OGL LOG] solve : 1 ms
BJompGKOBiCGStab:  Solving for p, Initial residual = 0.0567762, Final residual = 7.94455e-05, No Iterations 11
linear solve p 1263
time step continuity errors : sum local = 3.0511e-07, global = 7.32923e-21, cumulative = 1.6761e-20
[OGL LOG] init_host_sparsity_pattern : 0 ms
[OGL LOG] matrix not stored update host matrix
[OGL LOG] update_host_mtx : 0 ms
[OGL LOG] matrix is not yet sorted, sorting host matrix
[OGL LOG] sort_host_mtx_sparsity_pattern : 0 ms
[OGL LOG] sort_host_mtx : 0 ms
[OGL LOG] init_preconditioner : 0 ms
[OGL LOG] solve : 0 ms
BJompGKOBiCGStab:  Solving for p, Initial residual = 0.00190643, Final residual = 9.88332e-05, No Iterations 5
linear solve p 768
time step continuity errors : sum local = 1.11466e-07, global = -8.42483e-21, cumulative = 8.33612e-21
ExecutionTime = 0.08 s  ClockTime = 0 s

Time = 0.004

Courant Number mean: 0.00161824 max: 0.00379122
DILUPBiCGStab:  Solving for Ux, Initial residual = 0.108866, Final residual = 5.01573e-31, No Iterations 5
DILUPBiCGStab:  Solving for Uy, Initial residual = 0.129108, Final residual = 4.60899e-31, No Iterations 5
DILUPBiCGStab:  Solving for Uz, Initial residual = 0.169705, Final residual = 9.96877e-31, No Iterations 5
linear solve U 98
[OGL LOG] init_host_sparsity_pattern : 0 ms
[OGL LOG] matrix not stored update host matrix
[OGL LOG] update_host_mtx : 0 ms
[OGL LOG] matrix is not yet sorted, sorting host matrix
[OGL LOG] sort_host_mtx_sparsity_pattern : 0 ms
[OGL LOG] sort_host_mtx : 0 ms
[OGL LOG] init_preconditioner : 0 ms
[OGL LOG] solve : 0 ms
BJompGKOBiCGStab:  Solving for p, Initial residual = 0.0347438, Final residual = 4.92993e-05, No Iterations 5
linear solve p 770
time step continuity errors : sum local = 1.02688e-07, global = 1.2009e-20, cumulative = 2.03451e-20
[OGL LOG] init_host_sparsity_pattern : 0 ms
[OGL LOG] matrix not stored update host matrix
[OGL LOG] update_host_mtx : 0 ms
[OGL LOG] matrix is not yet sorted, sorting host matrix
[OGL LOG] sort_host_mtx_sparsity_pattern : 0 ms
[OGL LOG] sort_host_mtx : 0 ms
[OGL LOG] init_preconditioner : 0 ms
[OGL LOG] solve : 0 ms
BJompGKOBiCGStab:  Solving for p, Initial residual = 0.000987315, Final residual = 9.55443e-05, No Iterations 2
linear solve p 472
time step continuity errors : sum local = 7.06443e-08, global = 6.23653e-21, cumulative = 2.65817e-20
ExecutionTime = 0.09 s  ClockTime = 0 s

Time = 0.005

Courant Number mean: 0.00206188 max: 0.00485802
DILUPBiCGStab:  Solving for Ux, Initial residual = 0.080056, Final residual = 3.73254e-31, No Iterations 5
DILUPBiCGStab:  Solving for Uy, Initial residual = 0.0966894, Final residual = 3.34053e-31, No Iterations 5
DILUPBiCGStab:  Solving for Uz, Initial residual = 0.144281, Final residual = 7.01999e-31, No Iterations 5
linear solve U 107
[OGL LOG] init_host_sparsity_pattern : 0 ms
[OGL LOG] matrix not stored update host matrix
[OGL LOG] update_host_mtx : 0 ms
[OGL LOG] matrix is not yet sorted, sorting host matrix
[OGL LOG] sort_host_mtx_sparsity_pattern : 0 ms
[OGL LOG] sort_host_mtx : 0 ms
[OGL LOG] init_preconditioner : 0 ms
[OGL LOG] solve : 0 ms
BJompGKOBiCGStab:  Solving for p, Initial residual = 0.0235515, Final residual = 8.75362e-05, No Iterations 5
linear solve p 712
time step continuity errors : sum local = 7.74769e-08, global = 1.61945e-20, cumulative = 4.27762e-20
[OGL LOG] init_host_sparsity_pattern : 0 ms
[OGL LOG] matrix not stored update host matrix
[OGL LOG] update_host_mtx : 0 ms
[OGL LOG] matrix is not yet sorted, sorting host matrix
[OGL LOG] sort_host_mtx_sparsity_pattern : 0 ms
[OGL LOG] sort_host_mtx : 0 ms
[OGL LOG] init_preconditioner : 0 ms
[OGL LOG] solve : 0 ms
BJompGKOBiCGStab:  Solving for p, Initial residual = 0.000750069, Final residual = 6.82357e-05, No Iterations 2
linear solve p 524
time step continuity errors : sum local = 1.06693e-07, global = 9.46129e-21, cumulative = 5.22375e-20
ExecutionTime = 0.1 s  ClockTime = 0 s

Time = 0.006

Courant Number mean: 0.00246614 max: 0.00584206
DILUPBiCGStab:  Solving for Ux, Initial residual = 0.0620608, Final residual = 2.92164e-31, No Iterations 5
DILUPBiCGStab:  Solving for Uy, Initial residual = 0.0759417, Final residual = 2.54386e-31, No Iterations 5
DILUPBiCGStab:  Solving for Uz, Initial residual = 0.123049, Final residual = 6.2282e-31, No Iterations 5
linear solve U 98
[OGL LOG] init_host_sparsity_pattern : 0 ms
[OGL LOG] matrix not stored update host matrix
[OGL LOG] update_host_mtx : 0 ms
[OGL LOG] matrix is not yet sorted, sorting host matrix
[OGL LOG] sort_host_mtx_sparsity_pattern : 0 ms
[OGL LOG] sort_host_mtx : 0 ms
[OGL LOG] init_preconditioner : 0 ms
[OGL LOG] solve : 0 ms
BJompGKOBiCGStab:  Solving for p, Initial residual = 0.0172071, Final residual = 8.84896e-05, No Iterations 10
linear solve p 1175
time step continuity errors : sum local = 4.22675e-07, global = 7.25272e-21, cumulative = 5.94902e-20
[OGL LOG] init_host_sparsity_pattern : 0 ms
[OGL LOG] matrix not stored update host matrix
[OGL LOG] update_host_mtx : 0 ms
[OGL LOG] matrix is not yet sorted, sorting host matrix
[OGL LOG] sort_host_mtx_sparsity_pattern : 0 ms
[OGL LOG] sort_host_mtx : 0 ms
[OGL LOG] init_preconditioner : 0 ms
[OGL LOG] solve : 0 ms
BJompGKOBiCGStab:  Solving for p, Initial residual = 0.00114992, Final residual = 9.63162e-05, No Iterations 6
linear solve p 828
time step continuity errors : sum local = 1.50454e-07, global = 9.635e-21, cumulative = 6.91252e-20
ExecutionTime = 0.11 s  ClockTime = 0 s

Time = 0.007

Courant Number mean: 0.00283519 max: 0.00675061
DILUPBiCGStab:  Solving for Ux, Initial residual = 0.0497944, Final residual = 2.36035e-31, No Iterations 5
DILUPBiCGStab:  Solving for Uy, Initial residual = 0.061636, Final residual = 2.02406e-31, No Iterations 5
DILUPBiCGStab:  Solving for Uz, Initial residual = 0.101909, Final residual = 6.01999e-31, No Iterations 5
linear solve U 99
[OGL LOG] init_host_sparsity_pattern : 0 ms
[OGL LOG] matrix not stored update host matrix
[OGL LOG] update_host_mtx : 0 ms
[OGL LOG] matrix is not yet sorted, sorting host matrix
[OGL LOG] sort_host_mtx_sparsity_pattern : 0 ms
[OGL LOG] sort_host_mtx : 0 ms
[OGL LOG] init_preconditioner : 0 ms
[OGL LOG] solve : 0 ms
BJompGKOBiCGStab:  Solving for p, Initial residual = 0.0133643, Final residual = 8.03119e-05, No Iterations 10
linear solve p 1169
time step continuity errors : sum local = 3.92577e-07, global = 7.25934e-21, cumulative = 7.63845e-20
[OGL LOG] init_host_sparsity_pattern : 0 ms
[OGL LOG] matrix not stored update host matrix
[OGL LOG] update_host_mtx : 0 ms
[OGL LOG] matrix is not yet sorted, sorting host matrix
[OGL LOG] sort_host_mtx_sparsity_pattern : 0 ms
[OGL LOG] sort_host_mtx : 0 ms
[OGL LOG] init_preconditioner : 0 ms
[OGL LOG] solve : 0 ms
BJompGKOBiCGStab:  Solving for p, Initial residual = 0.000923486, Final residual = 8.31789e-05, No Iterations 7
linear solve p 918
time step continuity errors : sum local = 3.15139e-07, global = -8.95671e-21, cumulative = 6.74278e-20
ExecutionTime = 0.12 s  ClockTime = 0 s

Time = 0.008

Courant Number mean: 0.00317236 max: 0.00759075
DILUPBiCGStab:  Solving for Ux, Initial residual = 0.0409174, Final residual = 1.95797e-31, No Iterations 5
DILUPBiCGStab:  Solving for Uy, Initial residual = 0.0511906, Final residual = 1.67065e-31, No Iterations 5
DILUPBiCGStab:  Solving for Uz, Initial residual = 0.0867993, Final residual = 6.2577e-31, No Iterations 5
linear solve U 98
[OGL LOG] init_host_sparsity_pattern : 0 ms
[OGL LOG] matrix not stored update host matrix
[OGL LOG] update_host_mtx : 0 ms
[OGL LOG] matrix is not yet sorted, sorting host matrix
[OGL LOG] sort_host_mtx_sparsity_pattern : 0 ms
[OGL LOG] sort_host_mtx : 0 ms
[OGL LOG] init_preconditioner : 0 ms
[OGL LOG] solve : 0 ms
BJompGKOBiCGStab:  Solving for p, Initial residual = 0.0108411, Final residual = 6.88101e-05, No Iterations 10
linear solve p 1187
time step continuity errors : sum local = 5.43313e-07, global = -1.69407e-21, cumulative = 6.57338e-20
[OGL LOG] init_host_sparsity_pattern : 0 ms
[OGL LOG] matrix not stored update host matrix
[OGL LOG] update_host_mtx : 0 ms
[OGL LOG] matrix is not yet sorted, sorting host matrix
[OGL LOG] sort_host_mtx_sparsity_pattern : 0 ms
[OGL LOG] sort_host_mtx : 0 ms
[OGL LOG] init_preconditioner : 0 ms
[OGL LOG] solve : 0 ms
BJompGKOBiCGStab:  Solving for p, Initial residual = 0.00121714, Final residual = 9.84893e-05, No Iterations 3
linear solve p 592
time step continuity errors : sum local = 1.2781e-07, global = 1.87538e-20, cumulative = 8.44876e-20
ExecutionTime = 0.13 s  ClockTime = 0 s

Time = 0.009

Courant Number mean: 0.0034809 max: 0.00836835
DILUPBiCGStab:  Solving for Ux, Initial residual = 0.0342171, Final residual = 1.65651e-31, No Iterations 5
DILUPBiCGStab:  Solving for Uy, Initial residual = 0.0433089, Final residual = 1.40259e-31, No Iterations 5
DILUPBiCGStab:  Solving for Uz, Initial residual = 0.076472, Final residual = 5.86232e-31, No Iterations 5
linear solve U 102
[OGL LOG] init_host_sparsity_pattern : 0 ms
[OGL LOG] matrix not stored update host matrix
[OGL LOG] update_host_mtx : 0 ms
[OGL LOG] matrix is not yet sorted, sorting host matrix
[OGL LOG] sort_host_mtx_sparsity_pattern : 0 ms
[OGL LOG] sort_host_mtx : 0 ms
[OGL LOG] init_preconditioner : 0 ms
[OGL LOG] solve : 0 ms
BJompGKOBiCGStab:  Solving for p, Initial residual = 0.00879961, Final residual = 9.80504e-05, No Iterations 9
linear solve p 1133
time step continuity errors : sum local = 4.18645e-07, global = -1.08692e-20, cumulative = 7.36185e-20
[OGL LOG] init_host_sparsity_pattern : 0 ms
[OGL LOG] matrix not stored update host matrix
[OGL LOG] update_host_mtx : 0 ms
[OGL LOG] matrix is not yet sorted, sorting host matrix
[OGL LOG] sort_host_mtx_sparsity_pattern : 0 ms
[OGL LOG] sort_host_mtx : 0 ms
[OGL LOG] init_preconditioner : 0 ms
[OGL LOG] solve : 0 ms
BJompGKOBiCGStab:  Solving for p, Initial residual = 0.000908213, Final residual = 9.88618e-05, No Iterations 7
linear solve p 918
time step continuity errors : sum local = 1.19926e-07, global = -4.14914e-21, cumulative = 6.94693e-20
ExecutionTime = 0.14 s  ClockTime = 0 s

Time = 0.01

Courant Number mean: 0.00376378 max: 0.00908815
DILUPBiCGStab:  Solving for Ux, Initial residual = 0.0290614, Final residual = 1.43161e-31, No Iterations 5
DILUPBiCGStab:  Solving for Uy, Initial residual = 0.0371238, Final residual = 1.19549e-31, No Iterations 5
DILUPBiCGStab:  Solving for Uz, Initial residual = 0.0676772, Final residual = 5.08315e-31, No Iterations 5
linear solve U 103
[OGL LOG] init_host_sparsity_pattern : 0 ms
[OGL LOG] matrix not stored update host matrix
[OGL LOG] update_host_mtx : 0 ms
[OGL LOG] matrix is not yet sorted, sorting host matrix
[OGL LOG] sort_host_mtx_sparsity_pattern : 0 ms
[OGL LOG] sort_host_mtx : 0 ms
[OGL LOG] init_preconditioner : 0 ms
[OGL LOG] solve : 0 ms
BJompGKOBiCGStab:  Solving for p, Initial residual = 0.00736044, Final residual = 8.79035e-05, No Iterations 9
linear solve p 1127
time step continuity errors : sum local = 4.75847e-07, global = -3.34578e-20, cumulative = 3.60115e-20
[OGL LOG] init_host_sparsity_pattern : 0 ms
[OGL LOG] matrix not stored update host matrix
[OGL LOG] update_host_mtx : 0 ms
[OGL LOG] matrix is not yet sorted, sorting host matrix
[OGL LOG] sort_host_mtx_sparsity_pattern : 0 ms
[OGL LOG] sort_host_mtx : 0 ms
[OGL LOG] init_preconditioner : 0 ms
[OGL LOG] solve : 0 ms
BJompGKOBiCGStab:  Solving for p, Initial residual = 0.000971705, Final residual = 8.72268e-05, No Iterations 7
linear solve p 1006
time step continuity errors : sum local = 2.60571e-07, global = 2.81903e-20, cumulative = 6.42018e-20
ExecutionTime = 0.16 s  ClockTime = 0 s

End

