/*---------------------------------------------------------------------------*\
  =========                 |
  \\      /  F ield         | OpenFOAM: The Open Source CFD Toolbox
   \\    /   O peration     | Website:  https://openfoam.org
    \\  /    A nd           | Version:  8
     \\/     M anipulation  |
\*---------------------------------------------------------------------------*/
Build  : 8-40a5a48f630f
Exec   : icoFoam
Date   : Jul 28 2021
Time   : 12:29:34
Host   : "uc2n423.localdomain"
PID    : 1364395
I/O    : uncollated
Case   : /pfs/data5/home/kit/scc/nq7776/code/OBR/lidDrivenCavity3D/Variation_mesh/65/Variation_matrix_solver/BiCGStab_BJ_OMP/base
nProcs : 1
sigFpe : Enabling floating point exception trapping (FOAM_SIGFPE).
fileModificationChecking : Monitoring run-time modified files using timeStampMaster (fileModificationSkew 10)
allowSystemOperations : Allowing user-supplied system call operations

// * * * * * * * * * * * * * * * * * * * * * * * * * * * * * * * * * * * * * //
Create time

Create mesh for time = 0

Reading transportProperties

Reading field p

Reading field U

Reading/calculating face flux field phi


Starting time loop

Time = 0.001

Courant Number mean: 0 max: 0
nonePBiCGStab:  Solving for Ux, Initial residual = 1, Final residual = 0.053017, No Iterations 5
nonePBiCGStab:  Solving for Uy, Initial residual = 0, Final residual = 0, No Iterations 0
nonePBiCGStab:  Solving for Uz, Initial residual = 0, Final residual = 0, No Iterations 0
linear solve U 69
[OGL LOG] init_host_sparsity_pattern : 78 ms
[OGL LOG] matrix not stored update host matrix
[OGL LOG] update_host_mtx : 40 ms
[OGL LOG] matrix is not yet sorted, compute sorting idxs
[OGL LOG] compute_sort : 2374 ms
[OGL LOG] matrix is not yet sorted, sorting host matrix
[OGL LOG] sort_host_mtx_sparsity_pattern : 57 ms
[OGL LOG] sort_host_mtx : 34 ms
[OGL LOG] init_preconditioner : 39 ms
[OGL LOG] solve : 8054 ms
BJompGKOBiCGStab:  Solving for p, Initial residual = 1, Final residual = 2.89219e-05, No Iterations 324
linear solve p 10737
time step continuity errors : sum local = 2.18262e-07, global = -5.81746e-21, cumulative = -5.81746e-21
[OGL LOG] init_host_sparsity_pattern : 75 ms
[OGL LOG] matrix not stored update host matrix
[OGL LOG] update_host_mtx : 40 ms
[OGL LOG] matrix is not yet sorted, sorting host matrix
[OGL LOG] sort_host_mtx_sparsity_pattern : 57 ms
[OGL LOG] sort_host_mtx : 27 ms
[OGL LOG] init_preconditioner : 0 ms
[OGL LOG] solve : 7806 ms
BJompGKOBiCGStab:  Solving for p, Initial residual = 0.674743, Final residual = 7.92043e-05, No Iterations 314
linear solve p 8044
time step continuity errors : sum local = 9.12969e-07, global = 6.04991e-21, cumulative = 2.32457e-22
ExecutionTime = 35.87 s  ClockTime = 20 s

Time = 0.002

Courant Number mean: 0.0326858 max: 0.468251
nonePBiCGStab:  Solving for Ux, Initial residual = 0.152101, Final residual = 0.0211812, No Iterations 5
nonePBiCGStab:  Solving for Uy, Initial residual = 0.364765, Final residual = 0.046182, No Iterations 5
nonePBiCGStab:  Solving for Uz, Initial residual = 0.96744, Final residual = 0.160318, No Iterations 5
linear solve U 135
[OGL LOG] init_host_sparsity_pattern : 73 ms
[OGL LOG] matrix not stored update host matrix
[OGL LOG] update_host_mtx : 39 ms
[OGL LOG] matrix is not yet sorted, sorting host matrix
[OGL LOG] sort_host_mtx_sparsity_pattern : 57 ms
[OGL LOG] sort_host_mtx : 27 ms
[OGL LOG] init_preconditioner : 0 ms
[OGL LOG] solve : 7628 ms
BJompGKOBiCGStab:  Solving for p, Initial residual = 0.656098, Final residual = 9.22832e-05, No Iterations 307
linear solve p 7862
time step continuity errors : sum local = 3.36649e-07, global = 4.67128e-21, cumulative = 4.90373e-21
[OGL LOG] init_host_sparsity_pattern : 72 ms
[OGL LOG] matrix not stored update host matrix
[OGL LOG] update_host_mtx : 35 ms
[OGL LOG] matrix is not yet sorted, sorting host matrix
[OGL LOG] sort_host_mtx_sparsity_pattern : 55 ms
[OGL LOG] sort_host_mtx : 27 ms
[OGL LOG] init_preconditioner : 0 ms
[OGL LOG] solve : 6853 ms
BJompGKOBiCGStab:  Solving for p, Initial residual = 0.573594, Final residual = 9.7955e-05, No Iterations 276
linear solve p 7076
time step continuity errors : sum local = 6.47632e-07, global = 1.54858e-21, cumulative = 6.45231e-21
ExecutionTime = 65.53 s  ClockTime = 35 s

Time = 0.003

Courant Number mean: 0.0502314 max: 0.556589
nonePBiCGStab:  Solving for Ux, Initial residual = 0.055057, Final residual = 0.00589595, No Iterations 5
nonePBiCGStab:  Solving for Uy, Initial residual = 0.126651, Final residual = 0.0167513, No Iterations 5
nonePBiCGStab:  Solving for Uz, Initial residual = 0.41284, Final residual = 0.074177, No Iterations 5
linear solve U 135
[OGL LOG] init_host_sparsity_pattern : 76 ms
[OGL LOG] matrix not stored update host matrix
[OGL LOG] update_host_mtx : 40 ms
[OGL LOG] matrix is not yet sorted, sorting host matrix
[OGL LOG] sort_host_mtx_sparsity_pattern : 56 ms
[OGL LOG] sort_host_mtx : 29 ms
[OGL LOG] init_preconditioner : 0 ms
[OGL LOG] solve : 6945 ms
BJompGKOBiCGStab:  Solving for p, Initial residual = 0.559259, Final residual = 9.41589e-05, No Iterations 281
linear solve p 7183
time step continuity errors : sum local = 7.21981e-08, global = 5.21032e-21, cumulative = 1.16626e-20
[OGL LOG] init_host_sparsity_pattern : 74 ms
[OGL LOG] matrix not stored update host matrix
[OGL LOG] update_host_mtx : 38 ms
[OGL LOG] matrix is not yet sorted, sorting host matrix
[OGL LOG] sort_host_mtx_sparsity_pattern : 57 ms
[OGL LOG] sort_host_mtx : 27 ms
[OGL LOG] init_preconditioner : 0 ms
[OGL LOG] solve : 6947 ms
BJompGKOBiCGStab:  Solving for p, Initial residual = 0.49303, Final residual = 4.20947e-05, No Iterations 280
linear solve p 7181
time step continuity errors : sum local = 3.14621e-08, global = -1.32916e-20, cumulative = -1.62899e-21
ExecutionTime = 94.05 s  ClockTime = 50 s

Time = 0.004

Courant Number mean: 0.0602728 max: 0.57501
nonePBiCGStab:  Solving for Ux, Initial residual = 0.033254, Final residual = 0.00305896, No Iterations 5
nonePBiCGStab:  Solving for Uy, Initial residual = 0.0810055, Final residual = 0.00707819, No Iterations 5
nonePBiCGStab:  Solving for Uz, Initial residual = 0.231835, Final residual = 0.0296416, No Iterations 5
linear solve U 136
[OGL LOG] init_host_sparsity_pattern : 74 ms
[OGL LOG] matrix not stored update host matrix
[OGL LOG] update_host_mtx : 40 ms
[OGL LOG] matrix is not yet sorted, sorting host matrix
[OGL LOG] sort_host_mtx_sparsity_pattern : 56 ms
[OGL LOG] sort_host_mtx : 27 ms
[OGL LOG] init_preconditioner : 0 ms
[OGL LOG] solve : 7297 ms
BJompGKOBiCGStab:  Solving for p, Initial residual = 0.354959, Final residual = 9.56513e-05, No Iterations 294
linear solve p 7528
time step continuity errors : sum local = 5.95046e-08, global = 1.7365e-21, cumulative = 1.07512e-22
[OGL LOG] init_host_sparsity_pattern : 72 ms
[OGL LOG] matrix not stored update host matrix
[OGL LOG] update_host_mtx : 35 ms
[OGL LOG] matrix is not yet sorted, sorting host matrix
[OGL LOG] sort_host_mtx_sparsity_pattern : 55 ms
[OGL LOG] sort_host_mtx : 28 ms
[OGL LOG] init_preconditioner : 0 ms
[OGL LOG] solve : 6888 ms
BJompGKOBiCGStab:  Solving for p, Initial residual = 0.293842, Final residual = 8.26159e-05, No Iterations 278
linear solve p 7111
time step continuity errors : sum local = 4.59832e-08, global = 1.17168e-20, cumulative = 1.18243e-20
ExecutionTime = 123.11 s  ClockTime = 65 s

Time = 0.005

Courant Number mean: 0.0682544 max: 0.585615
nonePBiCGStab:  Solving for Ux, Initial residual = 0.0236374, Final residual = 0.00194528, No Iterations 5
nonePBiCGStab:  Solving for Uy, Initial residual = 0.053137, Final residual = 0.00400584, No Iterations 5
nonePBiCGStab:  Solving for Uz, Initial residual = 0.118872, Final residual = 0.0137107, No Iterations 5
linear solve U 136
[OGL LOG] init_host_sparsity_pattern : 74 ms
[OGL LOG] matrix not stored update host matrix
[OGL LOG] update_host_mtx : 40 ms
[OGL LOG] matrix is not yet sorted, sorting host matrix
[OGL LOG] sort_host_mtx_sparsity_pattern : 56 ms
[OGL LOG] sort_host_mtx : 28 ms
[OGL LOG] init_preconditioner : 0 ms
[OGL LOG] solve : 2959 ms
BJompGKOBiCGStab:  Solving for p, Initial residual = 0.273374, Final residual = 9.83865e-05, No Iterations 119
linear solve p 3190
time step continuity errors : sum local = 7.48829e-08, global = 1.54164e-20, cumulative = 2.72407e-20
[OGL LOG] init_host_sparsity_pattern : 72 ms
[OGL LOG] matrix not stored update host matrix
[OGL LOG] update_host_mtx : 35 ms
[OGL LOG] matrix is not yet sorted, sorting host matrix
[OGL LOG] sort_host_mtx_sparsity_pattern : 55 ms
[OGL LOG] sort_host_mtx : 27 ms
[OGL LOG] init_preconditioner : 0 ms
[OGL LOG] solve : 2871 ms
BJompGKOBiCGStab:  Solving for p, Initial residual = 0.232066, Final residual = 8.87725e-05, No Iterations 115
linear solve p 3094
time step continuity errors : sum local = 6.12245e-08, global = 9.6052e-21, cumulative = 3.68459e-20
ExecutionTime = 135.52 s  ClockTime = 72 s

Time = 0.006

Courant Number mean: 0.0745326 max: 0.592199
nonePBiCGStab:  Solving for Ux, Initial residual = 0.0176286, Final residual = 0.00112701, No Iterations 5
nonePBiCGStab:  Solving for Uy, Initial residual = 0.0398499, Final residual = 0.00189017, No Iterations 5
nonePBiCGStab:  Solving for Uz, Initial residual = 0.0932296, Final residual = 0.0100865, No Iterations 5
linear solve U 136
[OGL LOG] init_host_sparsity_pattern : 74 ms
[OGL LOG] matrix not stored update host matrix
[OGL LOG] update_host_mtx : 40 ms
[OGL LOG] matrix is not yet sorted, sorting host matrix
[OGL LOG] sort_host_mtx_sparsity_pattern : 56 ms
[OGL LOG] sort_host_mtx : 27 ms
[OGL LOG] init_preconditioner : 0 ms
[OGL LOG] solve : 3021 ms
BJompGKOBiCGStab:  Solving for p, Initial residual = 0.179859, Final residual = 9.50752e-05, No Iterations 121
linear solve p 3251
time step continuity errors : sum local = 7.73432e-08, global = 1.10765e-20, cumulative = 4.79224e-20
[OGL LOG] init_host_sparsity_pattern : 72 ms
[OGL LOG] matrix not stored update host matrix
[OGL LOG] update_host_mtx : 35 ms
[OGL LOG] matrix is not yet sorted, sorting host matrix
[OGL LOG] sort_host_mtx_sparsity_pattern : 56 ms
[OGL LOG] sort_host_mtx : 27 ms
[OGL LOG] init_preconditioner : 0 ms
[OGL LOG] solve : 2960 ms
BJompGKOBiCGStab:  Solving for p, Initial residual = 0.149476, Final residual = 9.8213e-05, No Iterations 119
linear solve p 3184
time step continuity errors : sum local = 5.42911e-08, global = -6.68817e-21, cumulative = 4.12342e-20
ExecutionTime = 148.22 s  ClockTime = 78 s

Time = 0.007

Courant Number mean: 0.0797471 max: 0.596663
nonePBiCGStab:  Solving for Ux, Initial residual = 0.0138822, Final residual = 0.000746177, No Iterations 5
nonePBiCGStab:  Solving for Uy, Initial residual = 0.0314889, Final residual = 0.00142898, No Iterations 5
nonePBiCGStab:  Solving for Uz, Initial residual = 0.0716957, Final residual = 0.00588014, No Iterations 5
linear solve U 136
[OGL LOG] init_host_sparsity_pattern : 74 ms
[OGL LOG] matrix not stored update host matrix
[OGL LOG] update_host_mtx : 40 ms
[OGL LOG] matrix is not yet sorted, sorting host matrix
[OGL LOG] sort_host_mtx_sparsity_pattern : 56 ms
[OGL LOG] sort_host_mtx : 27 ms
[OGL LOG] init_preconditioner : 0 ms
[OGL LOG] solve : 2934 ms
BJompGKOBiCGStab:  Solving for p, Initial residual = 0.130646, Final residual = 9.9396e-05, No Iterations 118
linear solve p 3168
time step continuity errors : sum local = 8.67004e-08, global = 5.09774e-21, cumulative = 4.6332e-20
[OGL LOG] init_host_sparsity_pattern : 72 ms
[OGL LOG] matrix not stored update host matrix
[OGL LOG] update_host_mtx : 35 ms
[OGL LOG] matrix is not yet sorted, sorting host matrix
[OGL LOG] sort_host_mtx_sparsity_pattern : 56 ms
[OGL LOG] sort_host_mtx : 27 ms
[OGL LOG] init_preconditioner : 0 ms
[OGL LOG] solve : 2772 ms
BJompGKOBiCGStab:  Solving for p, Initial residual = 0.109631, Final residual = 8.84621e-05, No Iterations 111
linear solve p 2996
time step continuity errors : sum local = 6.68837e-08, global = -1.05163e-20, cumulative = 3.58156e-20
ExecutionTime = 160.4 s  ClockTime = 85 s

Time = 0.008

Courant Number mean: 0.084117 max: 0.600039
nonePBiCGStab:  Solving for Ux, Initial residual = 0.0114203, Final residual = 0.000596375, No Iterations 5
nonePBiCGStab:  Solving for Uy, Initial residual = 0.0254041, Final residual = 0.000913451, No Iterations 5
nonePBiCGStab:  Solving for Uz, Initial residual = 0.0621893, Final residual = 0.00596339, No Iterations 5
linear solve U 135
[OGL LOG] init_host_sparsity_pattern : 74 ms
[OGL LOG] matrix not stored update host matrix
[OGL LOG] update_host_mtx : 40 ms
[OGL LOG] matrix is not yet sorted, sorting host matrix
[OGL LOG] sort_host_mtx_sparsity_pattern : 57 ms
[OGL LOG] sort_host_mtx : 27 ms
[OGL LOG] init_preconditioner : 0 ms
[OGL LOG] solve : 6608 ms
BJompGKOBiCGStab:  Solving for p, Initial residual = 0.091022, Final residual = 6.33691e-05, No Iterations 266
linear solve p 6840
time step continuity errors : sum local = 2.9444e-08, global = -1.43076e-21, cumulative = 3.43849e-20
[OGL LOG] init_host_sparsity_pattern : 72 ms
[OGL LOG] matrix not stored update host matrix
[OGL LOG] update_host_mtx : 35 ms
[OGL LOG] matrix is not yet sorted, sorting host matrix
[OGL LOG] sort_host_mtx_sparsity_pattern : 55 ms
[OGL LOG] sort_host_mtx : 27 ms
[OGL LOG] init_preconditioner : 0 ms
[OGL LOG] solve : 2902 ms
BJompGKOBiCGStab:  Solving for p, Initial residual = 0.076341, Final residual = 9.97049e-05, No Iterations 117
linear solve p 3125
time step continuity errors : sum local = 8.75062e-08, global = -1.26714e-20, cumulative = 2.17135e-20
ExecutionTime = 180.14 s  ClockTime = 95 s

Time = 0.009

Courant Number mean: 0.0878739 max: 0.602643
nonePBiCGStab:  Solving for Ux, Initial residual = 0.00950677, Final residual = 0.000517531, No Iterations 5
nonePBiCGStab:  Solving for Uy, Initial residual = 0.0216405, Final residual = 0.000805368, No Iterations 5
nonePBiCGStab:  Solving for Uz, Initial residual = 0.0565408, Final residual = 0.00702557, No Iterations 5
linear solve U 135
[OGL LOG] init_host_sparsity_pattern : 74 ms
[OGL LOG] matrix not stored update host matrix
[OGL LOG] update_host_mtx : 40 ms
[OGL LOG] matrix is not yet sorted, sorting host matrix
[OGL LOG] sort_host_mtx_sparsity_pattern : 56 ms
[OGL LOG] sort_host_mtx : 27 ms
[OGL LOG] init_preconditioner : 0 ms
[OGL LOG] solve : 5511 ms
BJompGKOBiCGStab:  Solving for p, Initial residual = 0.0696345, Final residual = 9.75719e-05, No Iterations 223
linear solve p 5741
time step continuity errors : sum local = 7.73102e-08, global = 2.64808e-20, cumulative = 4.81943e-20
[OGL LOG] init_host_sparsity_pattern : 72 ms
[OGL LOG] matrix not stored update host matrix
[OGL LOG] update_host_mtx : 35 ms
[OGL LOG] matrix is not yet sorted, sorting host matrix
[OGL LOG] sort_host_mtx_sparsity_pattern : 55 ms
[OGL LOG] sort_host_mtx : 27 ms
[OGL LOG] init_preconditioner : 0 ms
[OGL LOG] solve : 5134 ms
BJompGKOBiCGStab:  Solving for p, Initial residual = 0.0590322, Final residual = 9.83715e-05, No Iterations 207
linear solve p 5356
time step continuity errors : sum local = 1.23209e-07, global = 3.35462e-20, cumulative = 8.17405e-20
ExecutionTime = 202.14 s  ClockTime = 106 s

Time = 0.01

Courant Number mean: 0.0911375 max: 0.604751
nonePBiCGStab:  Solving for Ux, Initial residual = 0.00833993, Final residual = 0.000477874, No Iterations 5
nonePBiCGStab:  Solving for Uy, Initial residual = 0.0181717, Final residual = 0.000828727, No Iterations 5
nonePBiCGStab:  Solving for Uz, Initial residual = 0.0592982, Final residual = 0.0111102, No Iterations 5
linear solve U 135
[OGL LOG] init_host_sparsity_pattern : 74 ms
[OGL LOG] matrix not stored update host matrix
[OGL LOG] update_host_mtx : 40 ms
[OGL LOG] matrix is not yet sorted, sorting host matrix
[OGL LOG] sort_host_mtx_sparsity_pattern : 56 ms
[OGL LOG] sort_host_mtx : 27 ms
[OGL LOG] init_preconditioner : 0 ms
[OGL LOG] solve : 7141 ms
BJompGKOBiCGStab:  Solving for p, Initial residual = 0.0592297, Final residual = 9.26236e-05, No Iterations 288
linear solve p 7371
time step continuity errors : sum local = 2.11779e-07, global = 3.21999e-22, cumulative = 8.20625e-20
[OGL LOG] init_host_sparsity_pattern : 72 ms
[OGL LOG] matrix not stored update host matrix
[OGL LOG] update_host_mtx : 35 ms
[OGL LOG] matrix is not yet sorted, sorting host matrix
[OGL LOG] sort_host_mtx_sparsity_pattern : 55 ms
[OGL LOG] sort_host_mtx : 27 ms
[OGL LOG] init_preconditioner : 0 ms
[OGL LOG] solve : 7304 ms
BJompGKOBiCGStab:  Solving for p, Initial residual = 0.050782, Final residual = 9.79444e-05, No Iterations 295
linear solve p 7528
time step continuity errors : sum local = 4.60941e-08, global = 1.18314e-20, cumulative = 9.38939e-20
ExecutionTime = 231.74 s  ClockTime = 122 s

End

