/*---------------------------------------------------------------------------*\
  =========                 |
  \\      /  F ield         | OpenFOAM: The Open Source CFD Toolbox
   \\    /   O peration     | Website:  https://openfoam.org
    \\  /    A nd           | Version:  8
     \\/     M anipulation  |
\*---------------------------------------------------------------------------*/
Build  : 8-ef60d22ea792
Exec   : icoFoam
Date   : Jul 29 2021
Time   : 04:20:18
Host   : "uc2n414.localdomain"
PID    : 2866979
I/O    : uncollated
Case   : /pfs/data5/home/kit/scc/nq7776/code/OBR/lidDrivenCavity3D/Variation_mesh/70/Variation_matrix_solver/IR_NoPrecond_OMP/base
nProcs : 1
sigFpe : Enabling floating point exception trapping (FOAM_SIGFPE).
fileModificationChecking : Monitoring run-time modified files using timeStampMaster (fileModificationSkew 10)
allowSystemOperations : Allowing user-supplied system call operations

// * * * * * * * * * * * * * * * * * * * * * * * * * * * * * * * * * * * * * //
Create time

Create mesh for time = 0

Reading transportProperties

Reading field p

Reading field U

Reading/calculating face flux field phi


Starting time loop

Time = 0.001

Courant Number mean: 0 max: 0
DILUPBiCGStab:  Solving for Ux, Initial residual = 1, Final residual = 0.00143011, No Iterations 5
DILUPBiCGStab:  Solving for Uy:  solution singularity
DILUPBiCGStab:  Solving for Uz:  solution singularity
linear solve U 159532
[OGL LOG] init_host_sparsity_pattern : 97 ms
[OGL LOG] matrix not stored update host matrix
[OGL LOG] update_host_mtx : 53 ms
[OGL LOG] matrix is not yet sorted, compute sorting idxs
[OGL LOG] compute_sort : 2950 ms
[OGL LOG] matrix is not yet sorted, sorting host matrix
[OGL LOG] sort_host_mtx_sparsity_pattern : 71 ms
[OGL LOG] sort_host_mtx : 42 ms
[OGL LOG] init_preconditioner : 0 ms
[OGL LOG] solve : 6219 ms
noneompGKOIR:  Solving for p, Initial residual = 1, Final residual = 1.15948e-05, No Iterations 3
linear solve p 9505173
time step continuity errors : sum local = 6.86166e-09, global = 3.5124e-21, cumulative = 3.5124e-21
[OGL LOG] init_host_sparsity_pattern : 97 ms
[OGL LOG] matrix not stored update host matrix
[OGL LOG] update_host_mtx : 50 ms
[OGL LOG] matrix is not yet sorted, sorting host matrix
[OGL LOG] sort_host_mtx_sparsity_pattern : 70 ms
[OGL LOG] sort_host_mtx : 34 ms
[OGL LOG] init_preconditioner : 0 ms
[OGL LOG] solve : 6279 ms
noneompGKOIR:  Solving for p, Initial residual = 0.72385, Final residual = 5.8921e-06, No Iterations 3
linear solve p 6576376
time step continuity errors : sum local = 4.63459e-09, global = 1.4723e-21, cumulative = 4.98471e-21
ExecutionTime = 17.63 s  ClockTime = 17 s

Time = 0.002

Courant Number mean: 0.0394021 max: 0.518352
DILUPBiCGStab:  Solving for Ux, Initial residual = 0.151291, Final residual = 0.000459808, No Iterations 5
DILUPBiCGStab:  Solving for Uy, Initial residual = 0.361768, Final residual = 0.000929265, No Iterations 5
DILUPBiCGStab:  Solving for Uz, Initial residual = 0.984732, Final residual = 0.00303016, No Iterations 5
linear solve U 314665
[OGL LOG] init_host_sparsity_pattern : 93 ms
[OGL LOG] matrix not stored update host matrix
[OGL LOG] update_host_mtx : 50 ms
[OGL LOG] matrix is not yet sorted, sorting host matrix
[OGL LOG] sort_host_mtx_sparsity_pattern : 70 ms
[OGL LOG] sort_host_mtx : 34 ms
[OGL LOG] init_preconditioner : 0 ms
[OGL LOG] solve : 6266 ms
noneompGKOIR:  Solving for p, Initial residual = 0.674246, Final residual = 3.57687e-06, No Iterations 3
linear solve p 6559158
time step continuity errors : sum local = 3.08137e-09, global = -9.04215e-21, cumulative = -4.05744e-21
[OGL LOG] init_host_sparsity_pattern : 94 ms
[OGL LOG] matrix not stored update host matrix
[OGL LOG] update_host_mtx : 50 ms
[OGL LOG] matrix is not yet sorted, sorting host matrix
[OGL LOG] sort_host_mtx_sparsity_pattern : 70 ms
[OGL LOG] sort_host_mtx : 34 ms
[OGL LOG] init_preconditioner : 0 ms
[OGL LOG] solve : 6341 ms
noneompGKOIR:  Solving for p, Initial residual = 0.601566, Final residual = 2.80605e-06, No Iterations 3
linear solve p 6637158
time step continuity errors : sum local = 2.47215e-09, global = 1.04421e-20, cumulative = 6.38465e-21
ExecutionTime = 31.28 s  ClockTime = 31 s

Time = 0.003

Courant Number mean: 0.0591359 max: 0.616283
DILUPBiCGStab:  Solving for Ux, Initial residual = 0.0520836, Final residual = 0.00010812, No Iterations 5
DILUPBiCGStab:  Solving for Uy, Initial residual = 0.118677, Final residual = 0.000223828, No Iterations 5
DILUPBiCGStab:  Solving for Uz, Initial residual = 0.503356, Final residual = 0.00144602, No Iterations 5
linear solve U 315379
[OGL LOG] init_host_sparsity_pattern : 90 ms
[OGL LOG] matrix not stored update host matrix
[OGL LOG] update_host_mtx : 47 ms
[OGL LOG] matrix is not yet sorted, sorting host matrix
[OGL LOG] sort_host_mtx_sparsity_pattern : 71 ms
[OGL LOG] sort_host_mtx : 35 ms
[OGL LOG] init_preconditioner : 0 ms
[OGL LOG] solve : 6349 ms
noneompGKOIR:  Solving for p, Initial residual = 0.609167, Final residual = 2.05392e-06, No Iterations 3
linear solve p 6636891
time step continuity errors : sum local = 1.25942e-09, global = -1.16238e-20, cumulative = -5.23912e-21
[OGL LOG] init_host_sparsity_pattern : 97 ms
[OGL LOG] matrix not stored update host matrix
[OGL LOG] update_host_mtx : 50 ms
[OGL LOG] matrix is not yet sorted, sorting host matrix
[OGL LOG] sort_host_mtx_sparsity_pattern : 70 ms
[OGL LOG] sort_host_mtx : 35 ms
[OGL LOG] init_preconditioner : 0 ms
[OGL LOG] solve : 6777 ms
noneompGKOIR:  Solving for p, Initial residual = 0.557273, Final residual = 1.80664e-06, No Iterations 3
linear solve p 7075053
time step continuity errors : sum local = 1.07523e-09, global = -2.02072e-20, cumulative = -2.54463e-20
ExecutionTime = 45.45 s  ClockTime = 45 s

Time = 0.004

Courant Number mean: 0.0695969 max: 0.62949
DILUPBiCGStab:  Solving for Ux, Initial residual = 0.0286856, Final residual = 5.77657e-05, No Iterations 5
DILUPBiCGStab:  Solving for Uy, Initial residual = 0.0790557, Final residual = 0.000132068, No Iterations 5
DILUPBiCGStab:  Solving for Uz, Initial residual = 0.261647, Final residual = 0.000581854, No Iterations 5
linear solve U 317265
[OGL LOG] init_host_sparsity_pattern : 94 ms
[OGL LOG] matrix not stored update host matrix
[OGL LOG] update_host_mtx : 50 ms
[OGL LOG] matrix is not yet sorted, sorting host matrix
[OGL LOG] sort_host_mtx_sparsity_pattern : 70 ms
[OGL LOG] sort_host_mtx : 34 ms
[OGL LOG] init_preconditioner : 0 ms
[OGL LOG] solve : 5693 ms
noneompGKOIR:  Solving for p, Initial residual = 0.385845, Final residual = 1.38047e-06, No Iterations 3
linear solve p 5988274
time step continuity errors : sum local = 7.3852e-10, global = -6.49934e-21, cumulative = -3.19457e-20
[OGL LOG] init_host_sparsity_pattern : 97 ms
[OGL LOG] matrix not stored update host matrix
[OGL LOG] update_host_mtx : 50 ms
[OGL LOG] matrix is not yet sorted, sorting host matrix
[OGL LOG] sort_host_mtx_sparsity_pattern : 70 ms
[OGL LOG] sort_host_mtx : 34 ms
[OGL LOG] init_preconditioner : 0 ms
[OGL LOG] solve : 4838 ms
noneompGKOIR:  Solving for p, Initial residual = 0.32553, Final residual = 9.6601e-05, No Iterations 2
linear solve p 5136662
time step continuity errors : sum local = 5.21481e-08, global = -1.32467e-20, cumulative = -4.51924e-20
ExecutionTime = 57.04 s  ClockTime = 57 s

Time = 0.005

Courant Number mean: 0.0778346 max: 0.639338
DILUPBiCGStab:  Solving for Ux, Initial residual = 0.0206118, Final residual = 3.14025e-05, No Iterations 5
DILUPBiCGStab:  Solving for Uy, Initial residual = 0.0456748, Final residual = 6.10443e-05, No Iterations 5
DILUPBiCGStab:  Solving for Uz, Initial residual = 0.0901553, Final residual = 0.000191274, No Iterations 5
linear solve U 318411
[OGL LOG] init_host_sparsity_pattern : 92 ms
[OGL LOG] matrix not stored update host matrix
[OGL LOG] update_host_mtx : 50 ms
[OGL LOG] matrix is not yet sorted, sorting host matrix
[OGL LOG] sort_host_mtx_sparsity_pattern : 71 ms
[OGL LOG] sort_host_mtx : 35 ms
[OGL LOG] init_preconditioner : 0 ms
[OGL LOG] solve : 4858 ms
noneompGKOIR:  Solving for p, Initial residual = 0.289399, Final residual = 8.80425e-05, No Iterations 2
linear solve p 5150396
time step continuity errors : sum local = 3.91879e-08, global = 1.18019e-20, cumulative = -3.33904e-20
[OGL LOG] init_host_sparsity_pattern : 90 ms
[OGL LOG] matrix not stored update host matrix
[OGL LOG] update_host_mtx : 47 ms
[OGL LOG] matrix is not yet sorted, sorting host matrix
[OGL LOG] sort_host_mtx_sparsity_pattern : 70 ms
[OGL LOG] sort_host_mtx : 34 ms
[OGL LOG] init_preconditioner : 0 ms
[OGL LOG] solve : 4890 ms
noneompGKOIR:  Solving for p, Initial residual = 0.247154, Final residual = 7.43324e-05, No Iterations 2
linear solve p 5177742
time step continuity errors : sum local = 3.28321e-08, global = 1.70482e-21, cumulative = -3.16856e-20
ExecutionTime = 67.84 s  ClockTime = 68 s

Time = 0.006

Courant Number mean: 0.0841384 max: 0.645081
DILUPBiCGStab:  Solving for Ux, Initial residual = 0.0148933, Final residual = 2.19712e-05, No Iterations 5
DILUPBiCGStab:  Solving for Uy, Initial residual = 0.0354616, Final residual = 3.6645e-05, No Iterations 5
DILUPBiCGStab:  Solving for Uz, Initial residual = 0.0796202, Final residual = 0.000157862, No Iterations 5
linear solve U 312931
[OGL LOG] init_host_sparsity_pattern : 90 ms
[OGL LOG] matrix not stored update host matrix
[OGL LOG] update_host_mtx : 49 ms
[OGL LOG] matrix is not yet sorted, sorting host matrix
[OGL LOG] sort_host_mtx_sparsity_pattern : 70 ms
[OGL LOG] sort_host_mtx : 34 ms
[OGL LOG] init_preconditioner : 0 ms
[OGL LOG] solve : 4876 ms
noneompGKOIR:  Solving for p, Initial residual = 0.177101, Final residual = 5.14381e-05, No Iterations 2
linear solve p 5162585
time step continuity errors : sum local = 2.23465e-08, global = 1.93335e-20, cumulative = -1.23521e-20
[OGL LOG] init_host_sparsity_pattern : 90 ms
[OGL LOG] matrix not stored update host matrix
[OGL LOG] update_host_mtx : 47 ms
[OGL LOG] matrix is not yet sorted, sorting host matrix
[OGL LOG] sort_host_mtx_sparsity_pattern : 70 ms
[OGL LOG] sort_host_mtx : 35 ms
[OGL LOG] init_preconditioner : 0 ms
[OGL LOG] solve : 4794 ms
noneompGKOIR:  Solving for p, Initial residual = 0.146445, Final residual = 4.28698e-05, No Iterations 2
linear solve p 5082102
time step continuity errors : sum local = 1.86691e-08, global = 7.9263e-22, cumulative = -1.15595e-20
ExecutionTime = 78.55 s  ClockTime = 79 s

Time = 0.007

Courant Number mean: 0.0893566 max: 0.648976
DILUPBiCGStab:  Solving for Ux, Initial residual = 0.011892, Final residual = 1.23531e-05, No Iterations 5
DILUPBiCGStab:  Solving for Uy, Initial residual = 0.0272109, Final residual = 2.86775e-05, No Iterations 5
DILUPBiCGStab:  Solving for Uz, Initial residual = 0.0495029, Final residual = 7.65348e-05, No Iterations 5
linear solve U 315069
[OGL LOG] init_host_sparsity_pattern : 90 ms
[OGL LOG] matrix not stored update host matrix
[OGL LOG] update_host_mtx : 49 ms
[OGL LOG] matrix is not yet sorted, sorting host matrix
[OGL LOG] sort_host_mtx_sparsity_pattern : 70 ms
[OGL LOG] sort_host_mtx : 34 ms
[OGL LOG] init_preconditioner : 0 ms
[OGL LOG] solve : 4805 ms
noneompGKOIR:  Solving for p, Initial residual = 0.123805, Final residual = 3.10522e-05, No Iterations 2
linear solve p 5092101
time step continuity errors : sum local = 1.2876e-08, global = 1.1367e-20, cumulative = -1.92411e-22
[OGL LOG] init_host_sparsity_pattern : 90 ms
[OGL LOG] matrix not stored update host matrix
[OGL LOG] update_host_mtx : 47 ms
[OGL LOG] matrix is not yet sorted, sorting host matrix
[OGL LOG] sort_host_mtx_sparsity_pattern : 70 ms
[OGL LOG] sort_host_mtx : 35 ms
[OGL LOG] init_preconditioner : 0 ms
[OGL LOG] solve : 4820 ms
noneompGKOIR:  Solving for p, Initial residual = 0.103337, Final residual = 2.27399e-05, No Iterations 2
linear solve p 5108156
time step continuity errors : sum local = 9.42392e-09, global = 1.74163e-21, cumulative = 1.54922e-21
ExecutionTime = 89.23 s  ClockTime = 89 s

Time = 0.008

Courant Number mean: 0.0937058 max: 0.652002
DILUPBiCGStab:  Solving for Ux, Initial residual = 0.00969422, Final residual = 1.01001e-05, No Iterations 5
DILUPBiCGStab:  Solving for Uy, Initial residual = 0.0223486, Final residual = 1.32145e-05, No Iterations 5
DILUPBiCGStab:  Solving for Uz, Initial residual = 0.0435457, Final residual = 5.57005e-05, No Iterations 5
linear solve U 315923
[OGL LOG] init_host_sparsity_pattern : 92 ms
[OGL LOG] matrix not stored update host matrix
[OGL LOG] update_host_mtx : 49 ms
[OGL LOG] matrix is not yet sorted, sorting host matrix
[OGL LOG] sort_host_mtx_sparsity_pattern : 70 ms
[OGL LOG] sort_host_mtx : 34 ms
[OGL LOG] init_preconditioner : 0 ms
[OGL LOG] solve : 4669 ms
noneompGKOIR:  Solving for p, Initial residual = 0.0802144, Final residual = 1.95795e-05, No Iterations 2
linear solve p 4957957
time step continuity errors : sum local = 7.99917e-09, global = -5.48407e-21, cumulative = -3.93485e-21
[OGL LOG] init_host_sparsity_pattern : 90 ms
[OGL LOG] matrix not stored update host matrix
[OGL LOG] update_host_mtx : 47 ms
[OGL LOG] matrix is not yet sorted, sorting host matrix
[OGL LOG] sort_host_mtx_sparsity_pattern : 70 ms
[OGL LOG] sort_host_mtx : 34 ms
[OGL LOG] init_preconditioner : 0 ms
[OGL LOG] solve : 4813 ms
noneompGKOIR:  Solving for p, Initial residual = 0.0662047, Final residual = 1.48379e-05, No Iterations 2
linear solve p 5100419
time step continuity errors : sum local = 6.06734e-09, global = 5.17241e-21, cumulative = 1.23756e-21
ExecutionTime = 99.75 s  ClockTime = 100 s

Time = 0.009

Courant Number mean: 0.0974484 max: 0.654263
DILUPBiCGStab:  Solving for Ux, Initial residual = 0.00810858, Final residual = 5.40436e-06, No Iterations 5
DILUPBiCGStab:  Solving for Uy, Initial residual = 0.018821, Final residual = 1.30444e-05, No Iterations 5
DILUPBiCGStab:  Solving for Uz, Initial residual = 0.0355696, Final residual = 4.11162e-05, No Iterations 5
linear solve U 314730
[OGL LOG] init_host_sparsity_pattern : 90 ms
[OGL LOG] matrix not stored update host matrix
[OGL LOG] update_host_mtx : 49 ms
[OGL LOG] matrix is not yet sorted, sorting host matrix
[OGL LOG] sort_host_mtx_sparsity_pattern : 70 ms
[OGL LOG] sort_host_mtx : 35 ms
[OGL LOG] init_preconditioner : 0 ms
[OGL LOG] solve : 4787 ms
noneompGKOIR:  Solving for p, Initial residual = 0.0580434, Final residual = 1.17143e-05, No Iterations 2
linear solve p 5075140
time step continuity errors : sum local = 4.72127e-09, global = -1.80422e-21, cumulative = -5.66667e-22
[OGL LOG] init_host_sparsity_pattern : 92 ms
[OGL LOG] matrix not stored update host matrix
[OGL LOG] update_host_mtx : 47 ms
[OGL LOG] matrix is not yet sorted, sorting host matrix
[OGL LOG] sort_host_mtx_sparsity_pattern : 70 ms
[OGL LOG] sort_host_mtx : 34 ms
[OGL LOG] init_preconditioner : 0 ms
[OGL LOG] solve : 4803 ms
noneompGKOIR:  Solving for p, Initial residual = 0.0483946, Final residual = 1.00886e-05, No Iterations 2
linear solve p 5092422
time step continuity errors : sum local = 4.06751e-09, global = 6.97599e-21, cumulative = 6.40933e-21
ExecutionTime = 110.39 s  ClockTime = 110 s

Time = 0.01

Courant Number mean: 0.100691 max: 0.656136
DILUPBiCGStab:  Solving for Ux, Initial residual = 0.00694419, Final residual = 4.36004e-06, No Iterations 5
DILUPBiCGStab:  Solving for Uy, Initial residual = 0.0160915, Final residual = 6.79596e-06, No Iterations 5
DILUPBiCGStab:  Solving for Uz, Initial residual = 0.0311378, Final residual = 2.91081e-05, No Iterations 5
linear solve U 312595
[OGL LOG] init_host_sparsity_pattern : 90 ms
[OGL LOG] matrix not stored update host matrix
[OGL LOG] update_host_mtx : 49 ms
[OGL LOG] matrix is not yet sorted, sorting host matrix
[OGL LOG] sort_host_mtx_sparsity_pattern : 70 ms
[OGL LOG] sort_host_mtx : 34 ms
[OGL LOG] init_preconditioner : 0 ms
[OGL LOG] solve : 4839 ms
noneompGKOIR:  Solving for p, Initial residual = 0.0390482, Final residual = 8.51905e-06, No Iterations 2
linear solve p 5126395
time step continuity errors : sum local = 3.4085e-09, global = -1.43897e-20, cumulative = -7.98032e-21
[OGL LOG] init_host_sparsity_pattern : 90 ms
[OGL LOG] matrix not stored update host matrix
[OGL LOG] update_host_mtx : 47 ms
[OGL LOG] matrix is not yet sorted, sorting host matrix
[OGL LOG] sort_host_mtx_sparsity_pattern : 71 ms
[OGL LOG] sort_host_mtx : 35 ms
[OGL LOG] init_preconditioner : 0 ms
[OGL LOG] solve : 4900 ms
noneompGKOIR:  Solving for p, Initial residual = 0.0328607, Final residual = 6.91811e-06, No Iterations 2
linear solve p 5187949
time step continuity errors : sum local = 2.76991e-09, global = 1.61784e-20, cumulative = 8.19811e-21
ExecutionTime = 121.17 s  ClockTime = 121 s

End

