/*---------------------------------------------------------------------------*\
  =========                 |
  \\      /  F ield         | OpenFOAM: The Open Source CFD Toolbox
   \\    /   O peration     | Website:  https://openfoam.org
    \\  /    A nd           | Version:  8
     \\/     M anipulation  |
\*---------------------------------------------------------------------------*/
Build  : 8-40a5a48f630f
Exec   : icoFoam
Date   : Jul 28 2021
Time   : 12:07:30
Host   : "uc2n412.localdomain"
PID    : 4071330
I/O    : uncollated
Case   : /pfs/data5/home/kit/scc/nq7776/code/OBR/lidDrivenCavity3D/Variation_mesh/40/Variation_matrix_solver/BiCGStab_BJ_OMP/base
nProcs : 1
sigFpe : Enabling floating point exception trapping (FOAM_SIGFPE).
fileModificationChecking : Monitoring run-time modified files using timeStampMaster (fileModificationSkew 10)
allowSystemOperations : Allowing user-supplied system call operations

// * * * * * * * * * * * * * * * * * * * * * * * * * * * * * * * * * * * * * //
Create time

Create mesh for time = 0

Reading transportProperties

Reading field p

Reading field U

Reading/calculating face flux field phi


Starting time loop

Time = 0.001

Courant Number mean: 0 max: 0
nonePBiCGStab:  Solving for Ux, Initial residual = 1, Final residual = 0.0197517, No Iterations 5
nonePBiCGStab:  Solving for Uy, Initial residual = 0, Final residual = 0, No Iterations 0
nonePBiCGStab:  Solving for Uz, Initial residual = 0, Final residual = 0, No Iterations 0
linear solve U 14
[OGL LOG] init_host_sparsity_pattern : 18 ms
[OGL LOG] matrix not stored update host matrix
[OGL LOG] update_host_mtx : 9 ms
[OGL LOG] matrix is not yet sorted, compute sorting idxs
[OGL LOG] compute_sort : 483 ms
[OGL LOG] matrix is not yet sorted, sorting host matrix
[OGL LOG] sort_host_mtx_sparsity_pattern : 13 ms
[OGL LOG] sort_host_mtx : 7 ms
[OGL LOG] init_preconditioner : 3 ms
[OGL LOG] solve : 443 ms
BJompGKOBiCGStab:  Solving for p, Initial residual = 1, Final residual = 8.62669e-05, No Iterations 202
linear solve p 994
time step continuity errors : sum local = 3.48439e-07, global = -2.36218e-20, cumulative = -2.36218e-20
[OGL LOG] init_host_sparsity_pattern : 18 ms
[OGL LOG] matrix not stored update host matrix
[OGL LOG] update_host_mtx : 9 ms
[OGL LOG] matrix is not yet sorted, sorting host matrix
[OGL LOG] sort_host_mtx_sparsity_pattern : 12 ms
[OGL LOG] sort_host_mtx : 6 ms
[OGL LOG] init_preconditioner : 0 ms
[OGL LOG] solve : 447 ms
BJompGKOBiCGStab:  Solving for p, Initial residual = 0.598907, Final residual = 7.79611e-05, No Iterations 203
linear solve p 502
time step continuity errors : sum local = 1.52121e-05, global = -2.04593e-21, cumulative = -2.56677e-20
ExecutionTime = 8.12 s  ClockTime = 2 s

Time = 0.002

Courant Number mean: 0.0210354 max: 0.237022
nonePBiCGStab:  Solving for Ux, Initial residual = 0.177468, Final residual = 0.00680916, No Iterations 5
nonePBiCGStab:  Solving for Uy, Initial residual = 0.294488, Final residual = 0.00855759, No Iterations 5
nonePBiCGStab:  Solving for Uz, Initial residual = 0.819887, Final residual = 0.0416842, No Iterations 5
linear solve U 28
[OGL LOG] init_host_sparsity_pattern : 17 ms
[OGL LOG] matrix not stored update host matrix
[OGL LOG] update_host_mtx : 9 ms
[OGL LOG] matrix is not yet sorted, sorting host matrix
[OGL LOG] sort_host_mtx_sparsity_pattern : 13 ms
[OGL LOG] sort_host_mtx : 6 ms
[OGL LOG] init_preconditioner : 0 ms
[OGL LOG] solve : 421 ms
BJompGKOBiCGStab:  Solving for p, Initial residual = 0.466927, Final residual = 8.92022e-05, No Iterations 197
linear solve p 479
time step continuity errors : sum local = 4.21208e-06, global = 2.11604e-20, cumulative = -4.50736e-21
[OGL LOG] init_host_sparsity_pattern : 17 ms
[OGL LOG] matrix not stored update host matrix
[OGL LOG] update_host_mtx : 9 ms
[OGL LOG] matrix is not yet sorted, sorting host matrix
[OGL LOG] sort_host_mtx_sparsity_pattern : 14 ms
[OGL LOG] sort_host_mtx : 6 ms
[OGL LOG] init_preconditioner : 0 ms
[OGL LOG] solve : 400 ms
BJompGKOBiCGStab:  Solving for p, Initial residual = 0.366506, Final residual = 8.20428e-05, No Iterations 187
linear solve p 458
time step continuity errors : sum local = 6.27926e-07, global = -5.75317e-22, cumulative = -5.08268e-21
ExecutionTime = 14.96 s  ClockTime = 3 s

Time = 0.003

Courant Number mean: 0.0320977 max: 0.305878
nonePBiCGStab:  Solving for Ux, Initial residual = 0.0662001, Final residual = 0.00168919, No Iterations 5
nonePBiCGStab:  Solving for Uy, Initial residual = 0.107559, Final residual = 0.00193244, No Iterations 5
nonePBiCGStab:  Solving for Uz, Initial residual = 0.214037, Final residual = 0.0130062, No Iterations 5
linear solve U 28
[OGL LOG] init_host_sparsity_pattern : 18 ms
[OGL LOG] matrix not stored update host matrix
[OGL LOG] update_host_mtx : 9 ms
[OGL LOG] matrix is not yet sorted, sorting host matrix
[OGL LOG] sort_host_mtx_sparsity_pattern : 12 ms
[OGL LOG] sort_host_mtx : 6 ms
[OGL LOG] init_preconditioner : 0 ms
[OGL LOG] solve : 384 ms
BJompGKOBiCGStab:  Solving for p, Initial residual = 0.169015, Final residual = 9.89774e-05, No Iterations 182
linear solve p 439
time step continuity errors : sum local = 7.00427e-08, global = 3.58971e-21, cumulative = -1.49297e-21
[OGL LOG] init_host_sparsity_pattern : 17 ms
[OGL LOG] matrix not stored update host matrix
[OGL LOG] update_host_mtx : 9 ms
[OGL LOG] matrix is not yet sorted, sorting host matrix
[OGL LOG] sort_host_mtx_sparsity_pattern : 13 ms
[OGL LOG] sort_host_mtx : 6 ms
[OGL LOG] init_preconditioner : 0 ms
[OGL LOG] solve : 334 ms
BJompGKOBiCGStab:  Solving for p, Initial residual = 0.131281, Final residual = 9.07942e-05, No Iterations 159
linear solve p 389
time step continuity errors : sum local = 4.21865e-07, global = 8.9335e-21, cumulative = 7.44053e-21
ExecutionTime = 20.94 s  ClockTime = 4 s

Time = 0.004

Courant Number mean: 0.038661 max: 0.327536
nonePBiCGStab:  Solving for Ux, Initial residual = 0.0387476, Final residual = 0.000682255, No Iterations 5
nonePBiCGStab:  Solving for Uy, Initial residual = 0.0673815, Final residual = 0.000713597, No Iterations 5
nonePBiCGStab:  Solving for Uz, Initial residual = 0.128658, Final residual = 0.00344563, No Iterations 5
linear solve U 28
[OGL LOG] init_host_sparsity_pattern : 18 ms
[OGL LOG] matrix not stored update host matrix
[OGL LOG] update_host_mtx : 9 ms
[OGL LOG] matrix is not yet sorted, sorting host matrix
[OGL LOG] sort_host_mtx_sparsity_pattern : 12 ms
[OGL LOG] sort_host_mtx : 6 ms
[OGL LOG] init_preconditioner : 0 ms
[OGL LOG] solve : 378 ms
BJompGKOBiCGStab:  Solving for p, Initial residual = 0.0871302, Final residual = 6.27625e-05, No Iterations 176
linear solve p 433
time step continuity errors : sum local = 5.81219e-08, global = -4.78605e-21, cumulative = 2.65447e-21
[OGL LOG] init_host_sparsity_pattern : 18 ms
[OGL LOG] matrix not stored update host matrix
[OGL LOG] update_host_mtx : 9 ms
[OGL LOG] matrix is not yet sorted, sorting host matrix
[OGL LOG] sort_host_mtx_sparsity_pattern : 13 ms
[OGL LOG] sort_host_mtx : 6 ms
[OGL LOG] init_preconditioner : 0 ms
[OGL LOG] solve : 246 ms
BJompGKOBiCGStab:  Solving for p, Initial residual = 0.0666741, Final residual = 9.90002e-05, No Iterations 117
linear solve p 303
time step continuity errors : sum local = 1.23245e-07, global = -7.48554e-21, cumulative = -4.83107e-21
ExecutionTime = 26.19 s  ClockTime = 5 s

Time = 0.005

Courant Number mean: 0.0434659 max: 0.337853
nonePBiCGStab:  Solving for Ux, Initial residual = 0.0270827, Final residual = 0.000358963, No Iterations 5
nonePBiCGStab:  Solving for Uy, Initial residual = 0.0465206, Final residual = 0.000541174, No Iterations 5
nonePBiCGStab:  Solving for Uz, Initial residual = 0.0877001, Final residual = 0.0022861, No Iterations 5
linear solve U 27
[OGL LOG] init_host_sparsity_pattern : 17 ms
[OGL LOG] matrix not stored update host matrix
[OGL LOG] update_host_mtx : 9 ms
[OGL LOG] matrix is not yet sorted, sorting host matrix
[OGL LOG] sort_host_mtx_sparsity_pattern : 12 ms
[OGL LOG] sort_host_mtx : 6 ms
[OGL LOG] init_preconditioner : 0 ms
[OGL LOG] solve : 334 ms
BJompGKOBiCGStab:  Solving for p, Initial residual = 0.0445302, Final residual = 9.54278e-05, No Iterations 158
linear solve p 388
time step continuity errors : sum local = 2.99045e-07, global = 1.83347e-20, cumulative = 1.35036e-20
[OGL LOG] init_host_sparsity_pattern : 18 ms
[OGL LOG] matrix not stored update host matrix
[OGL LOG] update_host_mtx : 9 ms
[OGL LOG] matrix is not yet sorted, sorting host matrix
[OGL LOG] sort_host_mtx_sparsity_pattern : 13 ms
[OGL LOG] sort_host_mtx : 6 ms
[OGL LOG] init_preconditioner : 0 ms
[OGL LOG] solve : 141 ms
BJompGKOBiCGStab:  Solving for p, Initial residual = 0.0359232, Final residual = 8.97689e-05, No Iterations 66
linear solve p 196
time step continuity errors : sum local = 1.16164e-07, global = -2.02101e-20, cumulative = -6.70651e-21
ExecutionTime = 30.22 s  ClockTime = 6 s

Time = 0.006

Courant Number mean: 0.0471846 max: 0.344013
nonePBiCGStab:  Solving for Ux, Initial residual = 0.0203882, Final residual = 0.000225991, No Iterations 5
nonePBiCGStab:  Solving for Uy, Initial residual = 0.0359007, Final residual = 0.000321684, No Iterations 5
nonePBiCGStab:  Solving for Uz, Initial residual = 0.0723527, Final residual = 0.00189152, No Iterations 5
linear solve U 27
[OGL LOG] init_host_sparsity_pattern : 18 ms
[OGL LOG] matrix not stored update host matrix
[OGL LOG] update_host_mtx : 9 ms
[OGL LOG] matrix is not yet sorted, sorting host matrix
[OGL LOG] sort_host_mtx_sparsity_pattern : 13 ms
[OGL LOG] sort_host_mtx : 6 ms
[OGL LOG] init_preconditioner : 0 ms
[OGL LOG] solve : 386 ms
BJompGKOBiCGStab:  Solving for p, Initial residual = 0.0306087, Final residual = 9.80906e-05, No Iterations 180
linear solve p 441
time step continuity errors : sum local = 3.31801e-07, global = -1.68612e-20, cumulative = -2.35677e-20
[OGL LOG] init_host_sparsity_pattern : 18 ms
[OGL LOG] matrix not stored update host matrix
[OGL LOG] update_host_mtx : 9 ms
[OGL LOG] matrix is not yet sorted, sorting host matrix
[OGL LOG] sort_host_mtx_sparsity_pattern : 13 ms
[OGL LOG] sort_host_mtx : 6 ms
[OGL LOG] init_preconditioner : 0 ms
[OGL LOG] solve : 136 ms
BJompGKOBiCGStab:  Solving for p, Initial residual = 0.0250935, Final residual = 8.15582e-05, No Iterations 63
linear solve p 191
time step continuity errors : sum local = 2.10345e-07, global = -3.32312e-20, cumulative = -5.67988e-20
ExecutionTime = 34.65 s  ClockTime = 6 s

Time = 0.007

Courant Number mean: 0.0502169 max: 0.348244
nonePBiCGStab:  Solving for Ux, Initial residual = 0.0162307, Final residual = 0.000138356, No Iterations 5
nonePBiCGStab:  Solving for Uy, Initial residual = 0.0286085, Final residual = 0.000181726, No Iterations 5
nonePBiCGStab:  Solving for Uz, Initial residual = 0.0578112, Final residual = 0.00116513, No Iterations 5
linear solve U 27
[OGL LOG] init_host_sparsity_pattern : 18 ms
[OGL LOG] matrix not stored update host matrix
[OGL LOG] update_host_mtx : 9 ms
[OGL LOG] matrix is not yet sorted, sorting host matrix
[OGL LOG] sort_host_mtx_sparsity_pattern : 13 ms
[OGL LOG] sort_host_mtx : 6 ms
[OGL LOG] init_preconditioner : 0 ms
[OGL LOG] solve : 155 ms
BJompGKOBiCGStab:  Solving for p, Initial residual = 0.0244788, Final residual = 7.5251e-05, No Iterations 73
linear solve p 211
time step continuity errors : sum local = 9.048e-08, global = -6.33607e-21, cumulative = -6.31349e-20
[OGL LOG] init_host_sparsity_pattern : 18 ms
[OGL LOG] matrix not stored update host matrix
[OGL LOG] update_host_mtx : 9 ms
[OGL LOG] matrix is not yet sorted, sorting host matrix
[OGL LOG] sort_host_mtx_sparsity_pattern : 13 ms
[OGL LOG] sort_host_mtx : 6 ms
[OGL LOG] init_preconditioner : 0 ms
[OGL LOG] solve : 131 ms
BJompGKOBiCGStab:  Solving for p, Initial residual = 0.0202891, Final residual = 8.96899e-05, No Iterations 62
linear solve p 186
time step continuity errors : sum local = 7.02022e-08, global = 1.13323e-20, cumulative = -5.18026e-20
ExecutionTime = 37.18 s  ClockTime = 7 s

Time = 0.008

Courant Number mean: 0.0527883 max: 0.351356
nonePBiCGStab:  Solving for Ux, Initial residual = 0.0133389, Final residual = 0.000106277, No Iterations 5
nonePBiCGStab:  Solving for Uy, Initial residual = 0.0236244, Final residual = 0.000153075, No Iterations 5
nonePBiCGStab:  Solving for Uz, Initial residual = 0.0455553, Final residual = 0.000645475, No Iterations 5
linear solve U 27
[OGL LOG] init_host_sparsity_pattern : 18 ms
[OGL LOG] matrix not stored update host matrix
[OGL LOG] update_host_mtx : 9 ms
[OGL LOG] matrix is not yet sorted, sorting host matrix
[OGL LOG] sort_host_mtx_sparsity_pattern : 12 ms
[OGL LOG] sort_host_mtx : 6 ms
[OGL LOG] init_preconditioner : 0 ms
[OGL LOG] solve : 131 ms
BJompGKOBiCGStab:  Solving for p, Initial residual = 0.0185084, Final residual = 9.46629e-05, No Iterations 62
linear solve p 185
time step continuity errors : sum local = 6.50439e-08, global = 6.12459e-21, cumulative = -4.5678e-20
[OGL LOG] init_host_sparsity_pattern : 18 ms
[OGL LOG] matrix not stored update host matrix
[OGL LOG] update_host_mtx : 9 ms
[OGL LOG] matrix is not yet sorted, sorting host matrix
[OGL LOG] sort_host_mtx_sparsity_pattern : 12 ms
[OGL LOG] sort_host_mtx : 6 ms
[OGL LOG] init_preconditioner : 0 ms
[OGL LOG] solve : 128 ms
BJompGKOBiCGStab:  Solving for p, Initial residual = 0.0154882, Final residual = 9.61269e-05, No Iterations 58
linear solve p 183
time step continuity errors : sum local = 7.3381e-08, global = 3.23121e-20, cumulative = -1.33659e-20
ExecutionTime = 39.51 s  ClockTime = 7 s

Time = 0.009

Courant Number mean: 0.0549761 max: 0.353768
nonePBiCGStab:  Solving for Ux, Initial residual = 0.0112263, Final residual = 6.81782e-05, No Iterations 5
nonePBiCGStab:  Solving for Uy, Initial residual = 0.0198782, Final residual = 7.45761e-05, No Iterations 5
nonePBiCGStab:  Solving for Uz, Initial residual = 0.0384242, Final residual = 0.000343386, No Iterations 5
linear solve U 27
[OGL LOG] init_host_sparsity_pattern : 18 ms
[OGL LOG] matrix not stored update host matrix
[OGL LOG] update_host_mtx : 9 ms
[OGL LOG] matrix is not yet sorted, sorting host matrix
[OGL LOG] sort_host_mtx_sparsity_pattern : 13 ms
[OGL LOG] sort_host_mtx : 6 ms
[OGL LOG] init_preconditioner : 0 ms
[OGL LOG] solve : 130 ms
BJompGKOBiCGStab:  Solving for p, Initial residual = 0.0153567, Final residual = 6.30418e-05, No Iterations 60
linear solve p 187
time step continuity errors : sum local = 1.63674e-07, global = -1.48102e-20, cumulative = -2.81761e-20
[OGL LOG] init_host_sparsity_pattern : 18 ms
[OGL LOG] matrix not stored update host matrix
[OGL LOG] update_host_mtx : 9 ms
[OGL LOG] matrix is not yet sorted, sorting host matrix
[OGL LOG] sort_host_mtx_sparsity_pattern : 13 ms
[OGL LOG] sort_host_mtx : 6 ms
[OGL LOG] init_preconditioner : 0 ms
[OGL LOG] solve : 138 ms
BJompGKOBiCGStab:  Solving for p, Initial residual = 0.0130322, Final residual = 8.94055e-05, No Iterations 63
linear solve p 194
time step continuity errors : sum local = 9.97908e-08, global = -3.37056e-20, cumulative = -6.18818e-20
ExecutionTime = 41.91 s  ClockTime = 8 s

Time = 0.01

Courant Number mean: 0.0568598 max: 0.355699
nonePBiCGStab:  Solving for Ux, Initial residual = 0.00948201, Final residual = 4.71141e-05, No Iterations 5
nonePBiCGStab:  Solving for Uy, Initial residual = 0.0172751, Final residual = 6.86124e-05, No Iterations 5
nonePBiCGStab:  Solving for Uz, Initial residual = 0.0333144, Final residual = 0.000323696, No Iterations 5
linear solve U 27
[OGL LOG] init_host_sparsity_pattern : 18 ms
[OGL LOG] matrix not stored update host matrix
[OGL LOG] update_host_mtx : 9 ms
[OGL LOG] matrix is not yet sorted, sorting host matrix
[OGL LOG] sort_host_mtx_sparsity_pattern : 12 ms
[OGL LOG] sort_host_mtx : 6 ms
[OGL LOG] init_preconditioner : 0 ms
[OGL LOG] solve : 131 ms
BJompGKOBiCGStab:  Solving for p, Initial residual = 0.0142457, Final residual = 9.51194e-05, No Iterations 62
linear solve p 186
time step continuity errors : sum local = 7.47826e-08, global = 2.7809e-21, cumulative = -5.91009e-20
[OGL LOG] init_host_sparsity_pattern : 18 ms
[OGL LOG] matrix not stored update host matrix
[OGL LOG] update_host_mtx : 9 ms
[OGL LOG] matrix is not yet sorted, sorting host matrix
[OGL LOG] sort_host_mtx_sparsity_pattern : 12 ms
[OGL LOG] sort_host_mtx : 6 ms
[OGL LOG] init_preconditioner : 0 ms
[OGL LOG] solve : 121 ms
BJompGKOBiCGStab:  Solving for p, Initial residual = 0.0121485, Final residual = 9.40381e-05, No Iterations 57
linear solve p 175
time step continuity errors : sum local = 7.97444e-08, global = 6.62608e-21, cumulative = -5.24748e-20
ExecutionTime = 44.17 s  ClockTime = 8 s

End

