/*---------------------------------------------------------------------------*\
  =========                 |
  \\      /  F ield         | OpenFOAM: The Open Source CFD Toolbox
   \\    /   O peration     | Website:  https://openfoam.org
    \\  /    A nd           | Version:  8
     \\/     M anipulation  |
\*---------------------------------------------------------------------------*/
Build  : 8-14d69e1ee166
Exec   : icoFoam
Date   : Jul 29 2021
Time   : 07:30:43
Host   : "guyot.icl.utk.edu"
PID    : 14857
I/O    : uncollated
Case   : /home/greole/code/OBR/lidDrivenCavity3D/Variation_mesh/90/Variation_matrix_solver/BiCGStab_DIC_Serial/base
nProcs : 1
sigFpe : Enabling floating point exception trapping (FOAM_SIGFPE).
fileModificationChecking : Monitoring run-time modified files using timeStampMaster (fileModificationSkew 10)
allowSystemOperations : Allowing user-supplied system call operations

// * * * * * * * * * * * * * * * * * * * * * * * * * * * * * * * * * * * * * //
Create time

Create mesh for time = 0

Reading transportProperties

Reading field p

Reading field U

Reading/calculating face flux field phi


Starting time loop

Time = 0.001

Courant Number mean: 0 max: 0
DILUPBiCGStab:  Solving for Ux, Initial residual = 1, Final residual = 0.00485432, No Iterations 5
DILUPBiCGStab:  Solving for Uy:  solution singularity
DILUPBiCGStab:  Solving for Uz:  solution singularity
linear solve U 285691
DICPBiCGStab:  Solving for p, Initial residual = 1, Final residual = 7.0327e-05, No Iterations 174
linear solve p 5271353
time step continuity errors : sum local = 4.30692e-08, global = 1.25601e-20, cumulative = 1.25601e-20
DICPBiCGStab:  Solving for p, Initial residual = 0.763279, Final residual = 5.42899e-05, No Iterations 171
linear solve p 5168156
time step continuity errors : sum local = 5.25914e-08, global = -5.25883e-21, cumulative = 7.30129e-21
ExecutionTime = 14.13 s  ClockTime = 15 s

Time = 0.002

Courant Number mean: 0.050737 max: 0.709498
DILUPBiCGStab:  Solving for Ux, Initial residual = 0.142032, Final residual = 0.00197711, No Iterations 5
DILUPBiCGStab:  Solving for Uy, Initial residual = 0.408417, Final residual = 0.00514611, No Iterations 5
DILUPBiCGStab:  Solving for Uz, Initial residual = 0.9874, Final residual = 0.0136039, No Iterations 5
linear solve U 555778
DICPBiCGStab:  Solving for p, Initial residual = 0.765932, Final residual = 5.17609e-05, No Iterations 160
linear solve p 4844193
time step continuity errors : sum local = 9.33658e-08, global = 1.48824e-21, cumulative = 8.78953e-21
DICPBiCGStab:  Solving for p, Initial residual = 0.702913, Final residual = 4.88415e-05, No Iterations 159
linear solve p 4796074
time step continuity errors : sum local = 8.76323e-08, global = -1.01008e-21, cumulative = 7.77945e-21
ExecutionTime = 24.65 s  ClockTime = 25 s

Time = 0.003

Courant Number mean: 0.0767061 max: 0.830971
DILUPBiCGStab:  Solving for Ux, Initial residual = 0.0605827, Final residual = 0.000678404, No Iterations 5
DILUPBiCGStab:  Solving for Uy, Initial residual = 0.181281, Final residual = 0.00179636, No Iterations 5
DILUPBiCGStab:  Solving for Uz, Initial residual = 0.763037, Final residual = 0.0097883, No Iterations 5
linear solve U 554071
DICPBiCGStab:  Solving for p, Initial residual = 0.781212, Final residual = 9.62894e-05, No Iterations 180
linear solve p 5446267
time step continuity errors : sum local = 8.23658e-08, global = 1.19368e-21, cumulative = 8.97313e-21
DICPBiCGStab:  Solving for p, Initial residual = 0.743768, Final residual = 8.75755e-05, No Iterations 172
linear solve p 5185289
time step continuity errors : sum local = 7.27793e-08, global = -1.14993e-20, cumulative = -2.52614e-21
ExecutionTime = 36.16 s  ClockTime = 37 s

Time = 0.004

Courant Number mean: 0.0889599 max: 0.827816
DILUPBiCGStab:  Solving for Ux, Initial residual = 0.0331405, Final residual = 0.000437341, No Iterations 5
DILUPBiCGStab:  Solving for Uy, Initial residual = 0.130797, Final residual = 0.0015391, No Iterations 5
DILUPBiCGStab:  Solving for Uz, Initial residual = 0.535289, Final residual = 0.00592521, No Iterations 5
linear solve U 555226
DICPBiCGStab:  Solving for p, Initial residual = 0.654071, Final residual = 9.6015e-05, No Iterations 193
linear solve p 5846784
time step continuity errors : sum local = 7.30935e-08, global = 8.6017e-21, cumulative = 6.07556e-21
DICPBiCGStab:  Solving for p, Initial residual = 0.588285, Final residual = 9.96554e-05, No Iterations 134
linear solve p 4045898
time step continuity errors : sum local = 1.45226e-07, global = 6.16978e-21, cumulative = 1.22453e-20
ExecutionTime = 46.93 s  ClockTime = 47 s

Time = 0.005

Courant Number mean: 0.0998754 max: 0.839627
DILUPBiCGStab:  Solving for Ux, Initial residual = 0.0254873, Final residual = 0.000300872, No Iterations 5
DILUPBiCGStab:  Solving for Uy, Initial residual = 0.0683706, Final residual = 0.000857305, No Iterations 5
DILUPBiCGStab:  Solving for Uz, Initial residual = 0.399315, Final residual = 0.00446143, No Iterations 5
linear solve U 554279
DICPBiCGStab:  Solving for p, Initial residual = 0.630772, Final residual = 9.90219e-05, No Iterations 148
linear solve p 4498240
time step continuity errors : sum local = 1.09872e-07, global = 1.13211e-20, cumulative = 2.35665e-20
DICPBiCGStab:  Solving for p, Initial residual = 0.57816, Final residual = 8.70431e-05, No Iterations 141
linear solve p 4257943
time step continuity errors : sum local = 9.8465e-08, global = -6.65749e-21, cumulative = 1.6909e-20
ExecutionTime = 56.56 s  ClockTime = 57 s

Time = 0.006

Courant Number mean: 0.107733 max: 0.845198
DILUPBiCGStab:  Solving for Ux, Initial residual = 0.0161979, Final residual = 0.000178984, No Iterations 5
DILUPBiCGStab:  Solving for Uy, Initial residual = 0.0577187, Final residual = 0.000644762, No Iterations 5
DILUPBiCGStab:  Solving for Uz, Initial residual = 0.308839, Final residual = 0.00375004, No Iterations 5
linear solve U 554523
DICPBiCGStab:  Solving for p, Initial residual = 0.500896, Final residual = 9.70855e-05, No Iterations 152
linear solve p 4609615
time step continuity errors : sum local = 8.68978e-08, global = 1.67421e-20, cumulative = 3.36511e-20
DICPBiCGStab:  Solving for p, Initial residual = 0.444008, Final residual = 9.06249e-05, No Iterations 144
linear solve p 4350475
time step continuity errors : sum local = 9.71049e-08, global = -1.61012e-20, cumulative = 1.75499e-20
ExecutionTime = 66.4 s  ClockTime = 67 s

Time = 0.007

Courant Number mean: 0.114524 max: 0.848515
DILUPBiCGStab:  Solving for Ux, Initial residual = 0.014189, Final residual = 0.0001427, No Iterations 5
DILUPBiCGStab:  Solving for Uy, Initial residual = 0.0374042, Final residual = 0.000339974, No Iterations 5
DILUPBiCGStab:  Solving for Uz, Initial residual = 0.236126, Final residual = 0.00293216, No Iterations 5
linear solve U 554575
DICPBiCGStab:  Solving for p, Initial residual = 0.464043, Final residual = 6.62463e-05, No Iterations 149
linear solve p 4513717
time step continuity errors : sum local = 5.94602e-08, global = 2.18077e-22, cumulative = 1.7768e-20
DICPBiCGStab:  Solving for p, Initial residual = 0.409854, Final residual = 9.79775e-05, No Iterations 142
linear solve p 4284017
time step continuity errors : sum local = 8.79792e-08, global = 5.73376e-21, cumulative = 2.35018e-20
ExecutionTime = 76.08 s  ClockTime = 77 s

Time = 0.008

Courant Number mean: 0.120086 max: 0.852057
DILUPBiCGStab:  Solving for Ux, Initial residual = 0.010272, Final residual = 9.19346e-05, No Iterations 5
DILUPBiCGStab:  Solving for Uy, Initial residual = 0.0332055, Final residual = 0.000293736, No Iterations 5
DILUPBiCGStab:  Solving for Uz, Initial residual = 0.195182, Final residual = 0.00260368, No Iterations 5
linear solve U 553000
DICPBiCGStab:  Solving for p, Initial residual = 0.363989, Final residual = 4.82205e-06, No Iterations 171
linear solve p 5190052
time step continuity errors : sum local = 4.17542e-09, global = 3.25655e-20, cumulative = 5.60673e-20
DICPBiCGStab:  Solving for p, Initial residual = 0.317919, Final residual = 8.46841e-05, No Iterations 142
linear solve p 4286681
time step continuity errors : sum local = 7.40001e-08, global = -1.8374e-20, cumulative = 3.76933e-20
ExecutionTime = 86.43 s  ClockTime = 87 s

Time = 0.009

Courant Number mean: 0.124939 max: 0.853931
DILUPBiCGStab:  Solving for Ux, Initial residual = 0.00916643, Final residual = 7.66306e-05, No Iterations 5
DILUPBiCGStab:  Solving for Uy, Initial residual = 0.0241375, Final residual = 0.000161167, No Iterations 5
DILUPBiCGStab:  Solving for Uz, Initial residual = 0.147477, Final residual = 0.00198729, No Iterations 5
linear solve U 554097
DICPBiCGStab:  Solving for p, Initial residual = 0.320437, Final residual = 9.31612e-05, No Iterations 150
linear solve p 4542789
time step continuity errors : sum local = 5.27915e-08, global = 2.08513e-20, cumulative = 5.85446e-20
DICPBiCGStab:  Solving for p, Initial residual = 0.277998, Final residual = 9.96024e-05, No Iterations 143
linear solve p 4317471
time step continuity errors : sum local = 6.37622e-08, global = 1.9799e-20, cumulative = 7.83435e-20
ExecutionTime = 96.17 s  ClockTime = 97 s

Time = 0.01

Courant Number mean: 0.129116 max: 0.856158
DILUPBiCGStab:  Solving for Ux, Initial residual = 0.00718851, Final residual = 5.40405e-05, No Iterations 5
DILUPBiCGStab:  Solving for Uy, Initial residual = 0.0216298, Final residual = 0.000145558, No Iterations 5
DILUPBiCGStab:  Solving for Uz, Initial residual = 0.124971, Final residual = 0.00187966, No Iterations 5
linear solve U 554681
DICPBiCGStab:  Solving for p, Initial residual = 0.255669, Final residual = 9.98524e-05, No Iterations 172
linear solve p 5224847
time step continuity errors : sum local = 4.29616e-08, global = -1.06363e-21, cumulative = 7.72799e-20
DICPBiCGStab:  Solving for p, Initial residual = 0.22144, Final residual = 8.91199e-05, No Iterations 143
linear solve p 4315592
time step continuity errors : sum local = 6.81484e-08, global = 1.55088e-21, cumulative = 7.88308e-20
ExecutionTime = 106.59 s  ClockTime = 107 s

End

