/*---------------------------------------------------------------------------*\
  =========                 |
  \\      /  F ield         | OpenFOAM: The Open Source CFD Toolbox
   \\    /   O peration     | Website:  https://openfoam.org
    \\  /    A nd           | Version:  8
     \\/     M anipulation  |
\*---------------------------------------------------------------------------*/
Build  : 8-ef60d22ea792
Exec   : icoFoam
Date   : Jul 28 2021
Time   : 17:47:50
Host   : "nla-gpu2.ianm.kit.edu"
PID    : 1570040
I/O    : uncollated
Case   : /home/greole/code/OBR/lidDrivenCavity3D/Variation_mesh/80/Variation_matrix_solver/BiCGStab_DIC_Serial/base
nProcs : 1
sigFpe : Enabling floating point exception trapping (FOAM_SIGFPE).
fileModificationChecking : Monitoring run-time modified files using timeStampMaster (fileModificationSkew 10)
allowSystemOperations : Allowing user-supplied system call operations

// * * * * * * * * * * * * * * * * * * * * * * * * * * * * * * * * * * * * * //
Create time

Create mesh for time = 0

Reading transportProperties

Reading field p

Reading field U

Reading/calculating face flux field phi


Starting time loop

Time = 0.001

Courant Number mean: 0 max: 0
DILUPBiCGStab:  Solving for Ux, Initial residual = 1, Final residual = 0.00289442, No Iterations 5
DILUPBiCGStab:  Solving for Uy:  solution singularity
DILUPBiCGStab:  Solving for Uz:  solution singularity
linear solve U 212390
DICPBiCGStab:  Solving for p, Initial residual = 1, Final residual = 4.25463e-05, No Iterations 157
linear solve p 3441966
time step continuity errors : sum local = 2.57555e-08, global = 1.49533e-20, cumulative = 1.49533e-20
DICPBiCGStab:  Solving for p, Initial residual = 0.745921, Final residual = 1.82166e-05, No Iterations 143
linear solve p 3101363
time step continuity errors : sum local = 1.57874e-08, global = 1.54105e-20, cumulative = 3.03638e-20
ExecutionTime = 9.14 s  ClockTime = 10 s

Time = 0.002

Courant Number mean: 0.0451638 max: 0.613749
DILUPBiCGStab:  Solving for Ux, Initial residual = 0.146309, Final residual = 0.00105948, No Iterations 5
DILUPBiCGStab:  Solving for Uy, Initial residual = 0.385221, Final residual = 0.0024658, No Iterations 5
DILUPBiCGStab:  Solving for Uz, Initial residual = 0.987006, Final residual = 0.00713335, No Iterations 5
linear solve U 407812
DICPBiCGStab:  Solving for p, Initial residual = 0.724084, Final residual = 6.5316e-05, No Iterations 147
linear solve p 3206979
time step continuity errors : sum local = 8.28001e-08, global = 9.86619e-21, cumulative = 4.023e-20
DICPBiCGStab:  Solving for p, Initial residual = 0.657065, Final residual = 5.97797e-05, No Iterations 143
linear solve p 3083509
time step continuity errors : sum local = 1.01906e-07, global = -5.6912e-21, cumulative = 3.45388e-20
ExecutionTime = 16.04 s  ClockTime = 16 s

Time = 0.003

Courant Number mean: 0.0679268 max: 0.721713
DILUPBiCGStab:  Solving for Ux, Initial residual = 0.0559747, Final residual = 0.000354228, No Iterations 5
DILUPBiCGStab:  Solving for Uy, Initial residual = 0.144646, Final residual = 0.000949802, No Iterations 5
DILUPBiCGStab:  Solving for Uz, Initial residual = 0.68715, Final residual = 0.00462475, No Iterations 5
linear solve U 406304
DICPBiCGStab:  Solving for p, Initial residual = 0.705228, Final residual = 9.66902e-05, No Iterations 155
linear solve p 3365293
time step continuity errors : sum local = 6.99105e-08, global = 2.23493e-21, cumulative = 3.67737e-20
DICPBiCGStab:  Solving for p, Initial residual = 0.663394, Final residual = 9.80861e-05, No Iterations 71
linear solve p 1567574
time step continuity errors : sum local = 1.30724e-07, global = -1.62114e-20, cumulative = 2.05622e-20
ExecutionTime = 21.61 s  ClockTime = 22 s

Time = 0.004

Courant Number mean: 0.0793971 max: 0.728869
DILUPBiCGStab:  Solving for Ux, Initial residual = 0.029586, Final residual = 0.000181239, No Iterations 5
DILUPBiCGStab:  Solving for Uy, Initial residual = 0.100729, Final residual = 0.000586397, No Iterations 5
DILUPBiCGStab:  Solving for Uz, Initial residual = 0.404419, Final residual = 0.00234399, No Iterations 5
linear solve U 407182
DICPBiCGStab:  Solving for p, Initial residual = 0.528557, Final residual = 9.84184e-05, No Iterations 155
linear solve p 3358971
time step continuity errors : sum local = 6.52428e-08, global = 2.16361e-22, cumulative = 2.07786e-20
DICPBiCGStab:  Solving for p, Initial residual = 0.464466, Final residual = 8.77986e-05, No Iterations 135
linear solve p 2917628
time step continuity errors : sum local = 8.37472e-08, global = -7.6374e-21, cumulative = 1.31412e-20
ExecutionTime = 28.5 s  ClockTime = 29 s

Time = 0.005

Courant Number mean: 0.0889429 max: 0.739435
DILUPBiCGStab:  Solving for Ux, Initial residual = 0.0220987, Final residual = 0.000117607, No Iterations 5
DILUPBiCGStab:  Solving for Uy, Initial residual = 0.0524635, Final residual = 0.000207146, No Iterations 5
DILUPBiCGStab:  Solving for Uz, Initial residual = 0.21242, Final residual = 0.00144485, No Iterations 5
linear solve U 407265
DICPBiCGStab:  Solving for p, Initial residual = 0.464863, Final residual = 9.33161e-05, No Iterations 131
linear solve p 2856993
time step continuity errors : sum local = 8.2838e-08, global = -7.60149e-21, cumulative = 5.53971e-21
DICPBiCGStab:  Solving for p, Initial residual = 0.412139, Final residual = 9.89037e-05, No Iterations 122
linear solve p 2629470
time step continuity errors : sum local = 9.27265e-08, global = 2.04646e-21, cumulative = 7.58617e-21
ExecutionTime = 34.61 s  ClockTime = 35 s

Time = 0.006

Courant Number mean: 0.0960717 max: 0.745195
DILUPBiCGStab:  Solving for Ux, Initial residual = 0.0146656, Final residual = 6.85526e-05, No Iterations 5
DILUPBiCGStab:  Solving for Uy, Initial residual = 0.0428335, Final residual = 0.000174443, No Iterations 5
DILUPBiCGStab:  Solving for Uz, Initial residual = 0.182512, Final residual = 0.00129242, No Iterations 5
linear solve U 406063
DICPBiCGStab:  Solving for p, Initial residual = 0.32227, Final residual = 9.99753e-05, No Iterations 141
linear solve p 3057617
time step continuity errors : sum local = 4.90227e-08, global = -1.6403e-21, cumulative = 5.94588e-21
DICPBiCGStab:  Solving for p, Initial residual = 0.277063, Final residual = 9.42812e-05, No Iterations 124
linear solve p 2737416
time step continuity errors : sum local = 8.00932e-08, global = 1.02421e-20, cumulative = 1.6188e-20
ExecutionTime = 41.03 s  ClockTime = 42 s

Time = 0.007

Courant Number mean: 0.102052 max: 0.748868
DILUPBiCGStab:  Solving for Ux, Initial residual = 0.0122115, Final residual = 4.98451e-05, No Iterations 5
DILUPBiCGStab:  Solving for Uy, Initial residual = 0.0295131, Final residual = 8.4822e-05, No Iterations 5
DILUPBiCGStab:  Solving for Uz, Initial residual = 0.11273, Final residual = 0.000779452, No Iterations 5
linear solve U 406420
DICPBiCGStab:  Solving for p, Initial residual = 0.260621, Final residual = 7.51997e-05, No Iterations 131
linear solve p 2834730
time step continuity errors : sum local = 5.08332e-08, global = -7.02524e-21, cumulative = 9.16275e-21
DICPBiCGStab:  Solving for p, Initial residual = 0.22371, Final residual = 8.40505e-05, No Iterations 131
linear solve p 2828410
time step continuity errors : sum local = 4.79613e-08, global = -1.00075e-20, cumulative = -8.44784e-22
ExecutionTime = 47.31 s  ClockTime = 48 s

Time = 0.008

Courant Number mean: 0.107025 max: 0.752013
DILUPBiCGStab:  Solving for Ux, Initial residual = 0.00946007, Final residual = 3.47829e-05, No Iterations 5
DILUPBiCGStab:  Solving for Uy, Initial residual = 0.0251672, Final residual = 7.01567e-05, No Iterations 5
DILUPBiCGStab:  Solving for Uz, Initial residual = 0.0951426, Final residual = 0.000651162, No Iterations 5
linear solve U 406014
DICPBiCGStab:  Solving for p, Initial residual = 0.184076, Final residual = 9.73273e-05, No Iterations 130
linear solve p 2831484
time step continuity errors : sum local = 7.63565e-08, global = -1.03076e-21, cumulative = -1.87555e-21
DICPBiCGStab:  Solving for p, Initial residual = 0.155534, Final residual = 9.61802e-05, No Iterations 127
linear solve p 2734245
time step continuity errors : sum local = 7.54761e-08, global = 6.62013e-21, cumulative = 4.74458e-21
ExecutionTime = 53.5 s  ClockTime = 54 s

Time = 0.009

Courant Number mean: 0.111302 max: 0.754216
DILUPBiCGStab:  Solving for Ux, Initial residual = 0.00822373, Final residual = 2.78939e-05, No Iterations 5
DILUPBiCGStab:  Solving for Uy, Initial residual = 0.0198237, Final residual = 5.17742e-05, No Iterations 5
DILUPBiCGStab:  Solving for Uz, Initial residual = 0.079527, Final residual = 0.0005963, No Iterations 5
linear solve U 406096
DICPBiCGStab:  Solving for p, Initial residual = 0.146172, Final residual = 9.68619e-05, No Iterations 150
linear solve p 3251472
time step continuity errors : sum local = 3.80107e-08, global = 2.66866e-20, cumulative = 3.14311e-20
DICPBiCGStab:  Solving for p, Initial residual = 0.124189, Final residual = 4.8608e-05, No Iterations 120
linear solve p 2649971
time step continuity errors : sum local = 2.1637e-08, global = -1.76097e-22, cumulative = 3.12551e-20
ExecutionTime = 60.01 s  ClockTime = 61 s

Time = 0.01

Courant Number mean: 0.115024 max: 0.756179
DILUPBiCGStab:  Solving for Ux, Initial residual = 0.00680268, Final residual = 2.03554e-05, No Iterations 5
DILUPBiCGStab:  Solving for Uy, Initial residual = 0.0175342, Final residual = 4.22054e-05, No Iterations 5
DILUPBiCGStab:  Solving for Uz, Initial residual = 0.065787, Final residual = 0.00047191, No Iterations 5
linear solve U 407276
DICPBiCGStab:  Solving for p, Initial residual = 0.105623, Final residual = 9.36844e-05, No Iterations 130
linear solve p 2813664
time step continuity errors : sum local = 6.94226e-08, global = -2.18306e-20, cumulative = 9.42444e-21
DICPBiCGStab:  Solving for p, Initial residual = 0.0888459, Final residual = 9.26159e-05, No Iterations 139
linear solve p 2997257
time step continuity errors : sum local = 4.36639e-08, global = 1.73943e-20, cumulative = 2.68187e-20
ExecutionTime = 66.44 s  ClockTime = 67 s

End

