/*---------------------------------------------------------------------------*\
  =========                 |
  \\      /  F ield         | OpenFOAM: The Open Source CFD Toolbox
   \\    /   O peration     | Website:  https://openfoam.org
    \\  /    A nd           | Version:  8
     \\/     M anipulation  |
\*---------------------------------------------------------------------------*/
Build  : 8-ef60d22ea792
Exec   : icoFoam
Date   : Jul 28 2021
Time   : 22:10:01
Host   : "uc2n441.localdomain"
PID    : 3230411
I/O    : uncollated
Case   : /pfs/data5/home/kit/scc/nq7776/code/OBR/lidDrivenCavity3D/Variation_mesh/15/Variation_matrix_solver/CG_BJ_OMP/base
nProcs : 1
sigFpe : Enabling floating point exception trapping (FOAM_SIGFPE).
fileModificationChecking : Monitoring run-time modified files using timeStampMaster (fileModificationSkew 10)
allowSystemOperations : Allowing user-supplied system call operations

// * * * * * * * * * * * * * * * * * * * * * * * * * * * * * * * * * * * * * //
Create time

Create mesh for time = 0

Reading transportProperties

Reading field p

Reading field U

Reading/calculating face flux field phi


Starting time loop

Time = 0.001

Courant Number mean: 0 max: 0
DILUPBiCGStab:  Solving for Ux, Initial residual = 1, Final residual = 1.1028e-13, No Iterations 5
DILUPBiCGStab:  Solving for Uy:  solution singularity
DILUPBiCGStab:  Solving for Uz:  solution singularity
linear solve U 1465
[OGL LOG] init_host_sparsity_pattern : 1 ms
[OGL LOG] matrix not stored update host matrix
[OGL LOG] update_host_mtx : 0 ms
[OGL LOG] matrix is not yet sorted, compute sorting idxs
[OGL LOG] compute_sort : 23 ms
[OGL LOG] matrix is not yet sorted, sorting host matrix
[OGL LOG] sort_host_mtx_sparsity_pattern : 0 ms
[OGL LOG] sort_host_mtx : 0 ms
[OGL LOG] init_preconditioner : 0 ms
 CG create  precond 
[OGL LOG] solve : 10 ms
BJompGKOCG:  Solving for p, Initial residual = 1, Final residual = 8.8985e-05, No Iterations 94
linear solve p 39960
time step continuity errors : sum local = 3.73784e-08, global = -1.00006e-20, cumulative = -1.00006e-20
[OGL LOG] init_host_sparsity_pattern : 0 ms
[OGL LOG] matrix not stored update host matrix
[OGL LOG] update_host_mtx : 0 ms
[OGL LOG] matrix is not yet sorted, sorting host matrix
[OGL LOG] sort_host_mtx_sparsity_pattern : 0 ms
[OGL LOG] sort_host_mtx : 0 ms
[OGL LOG] init_preconditioner : 0 ms
 CG create  precond 
[OGL LOG] solve : 10 ms
BJompGKOCG:  Solving for p, Initial residual = 0.316804, Final residual = 8.85325e-05, No Iterations 89
linear solve p 13144
time step continuity errors : sum local = 6.50866e-08, global = -7.553e-22, cumulative = -1.07559e-20
ExecutionTime = 0.2 s  ClockTime = 0 s

Time = 0.002

Courant Number mean: 0.00559441 max: 0.0357002
DILUPBiCGStab:  Solving for Ux, Initial residual = 0.242393, Final residual = 1.13972e-14, No Iterations 5
DILUPBiCGStab:  Solving for Uy, Initial residual = 0.296208, Final residual = 1.1243e-14, No Iterations 5
DILUPBiCGStab:  Solving for Uz, Initial residual = 0.684738, Final residual = 3.38467e-14, No Iterations 5
linear solve U 2045
[OGL LOG] init_host_sparsity_pattern : 0 ms
[OGL LOG] matrix not stored update host matrix
[OGL LOG] update_host_mtx : 0 ms
[OGL LOG] matrix is not yet sorted, sorting host matrix
[OGL LOG] sort_host_mtx_sparsity_pattern : 0 ms
[OGL LOG] sort_host_mtx : 0 ms
[OGL LOG] init_preconditioner : 0 ms
 CG create  precond 
[OGL LOG] solve : 9 ms
BJompGKOCG:  Solving for p, Initial residual = 0.156969, Final residual = 9.01756e-05, No Iterations 82
linear solve p 12008
time step continuity errors : sum local = 6.46395e-08, global = 1.89424e-22, cumulative = -1.05665e-20
[OGL LOG] init_host_sparsity_pattern : 0 ms
[OGL LOG] matrix not stored update host matrix
[OGL LOG] update_host_mtx : 0 ms
[OGL LOG] matrix is not yet sorted, sorting host matrix
[OGL LOG] sort_host_mtx_sparsity_pattern : 0 ms
[OGL LOG] sort_host_mtx : 0 ms
[OGL LOG] init_preconditioner : 0 ms
 CG create  precond 
[OGL LOG] solve : 9 ms
BJompGKOCG:  Solving for p, Initial residual = 0.0605701, Final residual = 8.2831e-05, No Iterations 77
linear solve p 12041
time step continuity errors : sum local = 6.46463e-08, global = -1.87272e-20, cumulative = -2.92937e-20
ExecutionTime = 0.33 s  ClockTime = 0 s

Time = 0.003

Courant Number mean: 0.00940318 max: 0.0587296
DILUPBiCGStab:  Solving for Ux, Initial residual = 0.117973, Final residual = 5.344e-15, No Iterations 5
DILUPBiCGStab:  Solving for Uy, Initial residual = 0.148717, Final residual = 5.3485e-15, No Iterations 5
DILUPBiCGStab:  Solving for Uz, Initial residual = 0.319414, Final residual = 1.48423e-14, No Iterations 5
linear solve U 2179
[OGL LOG] init_host_sparsity_pattern : 0 ms
[OGL LOG] matrix not stored update host matrix
[OGL LOG] update_host_mtx : 0 ms
[OGL LOG] matrix is not yet sorted, sorting host matrix
[OGL LOG] sort_host_mtx_sparsity_pattern : 0 ms
[OGL LOG] sort_host_mtx : 0 ms
[OGL LOG] init_preconditioner : 0 ms
 CG create  precond 
[OGL LOG] solve : 9 ms
BJompGKOCG:  Solving for p, Initial residual = 0.0758882, Final residual = 8.87359e-05, No Iterations 79
linear solve p 12373
time step continuity errors : sum local = 7.1236e-08, global = 5.2252e-21, cumulative = -2.40684e-20
[OGL LOG] init_host_sparsity_pattern : 0 ms
[OGL LOG] matrix not stored update host matrix
[OGL LOG] update_host_mtx : 0 ms
[OGL LOG] matrix is not yet sorted, sorting host matrix
[OGL LOG] sort_host_mtx_sparsity_pattern : 0 ms
[OGL LOG] sort_host_mtx : 0 ms
[OGL LOG] init_preconditioner : 0 ms
 CG create  precond 
[OGL LOG] solve : 8 ms
BJompGKOCG:  Solving for p, Initial residual = 0.0340652, Final residual = 7.43599e-05, No Iterations 75
linear solve p 11506
time step continuity errors : sum local = 6.23292e-08, global = -3.00845e-20, cumulative = -5.41529e-20
ExecutionTime = 0.46 s  ClockTime = 0 s

Time = 0.004

Courant Number mean: 0.0121905 max: 0.0737268
DILUPBiCGStab:  Solving for Ux, Initial residual = 0.0723349, Final residual = 2.98996e-15, No Iterations 5
DILUPBiCGStab:  Solving for Uy, Initial residual = 0.0916578, Final residual = 3.02129e-15, No Iterations 5
DILUPBiCGStab:  Solving for Uz, Initial residual = 0.182401, Final residual = 7.95617e-15, No Iterations 5
linear solve U 2086
[OGL LOG] init_host_sparsity_pattern : 0 ms
[OGL LOG] matrix not stored update host matrix
[OGL LOG] update_host_mtx : 0 ms
[OGL LOG] matrix is not yet sorted, sorting host matrix
[OGL LOG] sort_host_mtx_sparsity_pattern : 0 ms
[OGL LOG] sort_host_mtx : 0 ms
[OGL LOG] init_preconditioner : 0 ms
 CG create  precond 
[OGL LOG] solve : 9 ms
BJompGKOCG:  Solving for p, Initial residual = 0.049196, Final residual = 7.62941e-05, No Iterations 77
linear solve p 12080
time step continuity errors : sum local = 6.51346e-08, global = -1.5478e-20, cumulative = -6.96309e-20
[OGL LOG] init_host_sparsity_pattern : 0 ms
[OGL LOG] matrix not stored update host matrix
[OGL LOG] update_host_mtx : 0 ms
[OGL LOG] matrix is not yet sorted, sorting host matrix
[OGL LOG] sort_host_mtx_sparsity_pattern : 0 ms
[OGL LOG] sort_host_mtx : 0 ms
[OGL LOG] init_preconditioner : 0 ms
 CG create  precond 
[OGL LOG] solve : 8 ms
BJompGKOCG:  Solving for p, Initial residual = 0.0220925, Final residual = 7.23317e-05, No Iterations 74
linear solve p 11562
time step continuity errors : sum local = 6.33059e-08, global = 1.90992e-20, cumulative = -5.05317e-20
ExecutionTime = 0.59 s  ClockTime = 0 s

Time = 0.005

Courant Number mean: 0.014306 max: 0.0838051
DILUPBiCGStab:  Solving for Ux, Initial residual = 0.0485641, Final residual = 1.79907e-15, No Iterations 5
DILUPBiCGStab:  Solving for Uy, Initial residual = 0.0627374, Final residual = 1.7476e-15, No Iterations 5
DILUPBiCGStab:  Solving for Uz, Initial residual = 0.12972, Final residual = 5.47922e-15, No Iterations 5
linear solve U 2076
[OGL LOG] init_host_sparsity_pattern : 0 ms
[OGL LOG] matrix not stored update host matrix
[OGL LOG] update_host_mtx : 0 ms
[OGL LOG] matrix is not yet sorted, sorting host matrix
[OGL LOG] sort_host_mtx_sparsity_pattern : 0 ms
[OGL LOG] sort_host_mtx : 0 ms
[OGL LOG] init_preconditioner : 0 ms
 CG create  precond 
[OGL LOG] solve : 8 ms
BJompGKOCG:  Solving for p, Initial residual = 0.035935, Final residual = 9.7838e-05, No Iterations 75
linear solve p 11562
time step continuity errors : sum local = 8.67894e-08, global = -3.91965e-21, cumulative = -5.44513e-20
[OGL LOG] init_host_sparsity_pattern : 0 ms
[OGL LOG] matrix not stored update host matrix
[OGL LOG] update_host_mtx : 0 ms
[OGL LOG] matrix is not yet sorted, sorting host matrix
[OGL LOG] sort_host_mtx_sparsity_pattern : 0 ms
[OGL LOG] sort_host_mtx : 0 ms
[OGL LOG] init_preconditioner : 0 ms
 CG create  precond 
[OGL LOG] solve : 8 ms
BJompGKOCG:  Solving for p, Initial residual = 0.0152467, Final residual = 8.82086e-05, No Iterations 72
linear solve p 10834
time step continuity errors : sum local = 7.96448e-08, global = -2.5249e-20, cumulative = -7.97003e-20
ExecutionTime = 0.71 s  ClockTime = 0 s

Time = 0.006

Courant Number mean: 0.0159484 max: 0.0908032
DILUPBiCGStab:  Solving for Ux, Initial residual = 0.0353496, Final residual = 1.17444e-15, No Iterations 5
DILUPBiCGStab:  Solving for Uy, Initial residual = 0.0460981, Final residual = 1.06315e-15, No Iterations 5
DILUPBiCGStab:  Solving for Uz, Initial residual = 0.0994511, Final residual = 3.99733e-15, No Iterations 5
linear solve U 2218
[OGL LOG] init_host_sparsity_pattern : 0 ms
[OGL LOG] matrix not stored update host matrix
[OGL LOG] update_host_mtx : 0 ms
[OGL LOG] matrix is not yet sorted, sorting host matrix
[OGL LOG] sort_host_mtx_sparsity_pattern : 0 ms
[OGL LOG] sort_host_mtx : 0 ms
[OGL LOG] init_preconditioner : 0 ms
 CG create  precond 
[OGL LOG] solve : 8 ms
BJompGKOCG:  Solving for p, Initial residual = 0.0288413, Final residual = 9.18222e-05, No Iterations 74
linear solve p 11733
time step continuity errors : sum local = 8.41638e-08, global = -4.4103e-20, cumulative = -1.23803e-19
[OGL LOG] init_host_sparsity_pattern : 0 ms
[OGL LOG] matrix not stored update host matrix
[OGL LOG] update_host_mtx : 0 ms
[OGL LOG] matrix is not yet sorted, sorting host matrix
[OGL LOG] sort_host_mtx_sparsity_pattern : 0 ms
[OGL LOG] sort_host_mtx : 0 ms
[OGL LOG] init_preconditioner : 0 ms
 CG create  precond 
[OGL LOG] solve : 8 ms
BJompGKOCG:  Solving for p, Initial residual = 0.0110215, Final residual = 9.31738e-05, No Iterations 70
linear solve p 11076
time step continuity errors : sum local = 8.6656e-08, global = -2.37608e-21, cumulative = -1.26179e-19
ExecutionTime = 0.83 s  ClockTime = 0 s

Time = 0.007

Courant Number mean: 0.0172719 max: 0.0958251
DILUPBiCGStab:  Solving for Ux, Initial residual = 0.0271632, Final residual = 8.70848e-16, No Iterations 5
DILUPBiCGStab:  Solving for Uy, Initial residual = 0.0356267, Final residual = 7.40825e-16, No Iterations 5
DILUPBiCGStab:  Solving for Uz, Initial residual = 0.0794463, Final residual = 3.12034e-15, No Iterations 5
linear solve U 2024
[OGL LOG] init_host_sparsity_pattern : 0 ms
[OGL LOG] matrix not stored update host matrix
[OGL LOG] update_host_mtx : 0 ms
[OGL LOG] matrix is not yet sorted, sorting host matrix
[OGL LOG] sort_host_mtx_sparsity_pattern : 0 ms
[OGL LOG] sort_host_mtx : 0 ms
[OGL LOG] init_preconditioner : 0 ms
 CG create  precond 
[OGL LOG] solve : 8 ms
BJompGKOCG:  Solving for p, Initial residual = 0.0217441, Final residual = 8.79891e-05, No Iterations 73
linear solve p 11101
time step continuity errors : sum local = 8.26822e-08, global = -2.69296e-20, cumulative = -1.53109e-19
[OGL LOG] init_host_sparsity_pattern : 0 ms
[OGL LOG] matrix not stored update host matrix
[OGL LOG] update_host_mtx : 0 ms
[OGL LOG] matrix is not yet sorted, sorting host matrix
[OGL LOG] sort_host_mtx_sparsity_pattern : 0 ms
[OGL LOG] sort_host_mtx : 0 ms
[OGL LOG] init_preconditioner : 0 ms
 CG create  precond 
[OGL LOG] solve : 3 ms
BJompGKOCG:  Solving for p, Initial residual = 0.00860086, Final residual = 8.93814e-05, No Iterations 33
linear solve p 6608
time step continuity errors : sum local = 1.10361e-07, global = -1.4017e-20, cumulative = -1.67126e-19
ExecutionTime = 0.93 s  ClockTime = 0 s

Time = 0.008

Courant Number mean: 0.0183554 max: 0.0995503
DILUPBiCGStab:  Solving for Ux, Initial residual = 0.0216519, Final residual = 6.39037e-16, No Iterations 5
DILUPBiCGStab:  Solving for Uy, Initial residual = 0.0286206, Final residual = 5.78671e-16, No Iterations 5
DILUPBiCGStab:  Solving for Uz, Initial residual = 0.0649636, Final residual = 2.4936e-15, No Iterations 5
linear solve U 2048
[OGL LOG] init_host_sparsity_pattern : 0 ms
[OGL LOG] matrix not stored update host matrix
[OGL LOG] update_host_mtx : 0 ms
[OGL LOG] matrix is not yet sorted, sorting host matrix
[OGL LOG] sort_host_mtx_sparsity_pattern : 0 ms
[OGL LOG] sort_host_mtx : 0 ms
[OGL LOG] init_preconditioner : 0 ms
 CG create  precond 
[OGL LOG] solve : 3 ms
BJompGKOCG:  Solving for p, Initial residual = 0.0163342, Final residual = 9.85258e-05, No Iterations 34
linear solve p 6887
time step continuity errors : sum local = 9.59003e-08, global = -1.11893e-20, cumulative = -1.78315e-19
[OGL LOG] init_host_sparsity_pattern : 0 ms
[OGL LOG] matrix not stored update host matrix
[OGL LOG] update_host_mtx : 0 ms
[OGL LOG] matrix is not yet sorted, sorting host matrix
[OGL LOG] sort_host_mtx_sparsity_pattern : 0 ms
[OGL LOG] sort_host_mtx : 0 ms
[OGL LOG] init_preconditioner : 0 ms
 CG create  precond 
[OGL LOG] solve : 3 ms
BJompGKOCG:  Solving for p, Initial residual = 0.00664682, Final residual = 9.77994e-05, No Iterations 29
linear solve p 6239
time step continuity errors : sum local = 1.08664e-07, global = -5.58795e-20, cumulative = -2.34195e-19
ExecutionTime = 1.02 s  ClockTime = 0 s

Time = 0.009

Courant Number mean: 0.0192552 max: 0.102395
DILUPBiCGStab:  Solving for Ux, Initial residual = 0.0176813, Final residual = 4.36975e-16, No Iterations 5
DILUPBiCGStab:  Solving for Uy, Initial residual = 0.0236222, Final residual = 4.83065e-16, No Iterations 5
DILUPBiCGStab:  Solving for Uz, Initial residual = 0.0544414, Final residual = 1.87805e-15, No Iterations 5
linear solve U 2095
[OGL LOG] init_host_sparsity_pattern : 0 ms
[OGL LOG] matrix not stored update host matrix
[OGL LOG] update_host_mtx : 0 ms
[OGL LOG] matrix is not yet sorted, sorting host matrix
[OGL LOG] sort_host_mtx_sparsity_pattern : 0 ms
[OGL LOG] sort_host_mtx : 0 ms
[OGL LOG] init_preconditioner : 0 ms
 CG create  precond 
[OGL LOG] solve : 4 ms
BJompGKOCG:  Solving for p, Initial residual = 0.0132668, Final residual = 8.21628e-05, No Iterations 34
linear solve p 7015
time step continuity errors : sum local = 9.65216e-08, global = -7.9521e-21, cumulative = -2.42147e-19
[OGL LOG] init_host_sparsity_pattern : 0 ms
[OGL LOG] matrix not stored update host matrix
[OGL LOG] update_host_mtx : 0 ms
[OGL LOG] matrix is not yet sorted, sorting host matrix
[OGL LOG] sort_host_mtx_sparsity_pattern : 0 ms
[OGL LOG] sort_host_mtx : 0 ms
[OGL LOG] init_preconditioner : 0 ms
 CG create  precond 
[OGL LOG] solve : 3 ms
BJompGKOCG:  Solving for p, Initial residual = 0.0053939, Final residual = 7.97347e-05, No Iterations 29
linear solve p 6295
time step continuity errors : sum local = 8.22958e-08, global = 2.50112e-20, cumulative = -2.17136e-19
ExecutionTime = 1.1 s  ClockTime = 0 s

Time = 0.01

Courant Number mean: 0.0200143 max: 0.104627
DILUPBiCGStab:  Solving for Ux, Initial residual = 0.0147299, Final residual = 2.84321e-16, No Iterations 5
DILUPBiCGStab:  Solving for Uy, Initial residual = 0.0199284, Final residual = 4.01652e-16, No Iterations 5
DILUPBiCGStab:  Solving for Uz, Initial residual = 0.04634, Final residual = 1.54047e-15, No Iterations 5
linear solve U 2104
[OGL LOG] init_host_sparsity_pattern : 0 ms
[OGL LOG] matrix not stored update host matrix
[OGL LOG] update_host_mtx : 0 ms
[OGL LOG] matrix is not yet sorted, sorting host matrix
[OGL LOG] sort_host_mtx_sparsity_pattern : 0 ms
[OGL LOG] sort_host_mtx : 0 ms
[OGL LOG] init_preconditioner : 0 ms
 CG create  precond 
[OGL LOG] solve : 3 ms
BJompGKOCG:  Solving for p, Initial residual = 0.0111358, Final residual = 8.68973e-05, No Iterations 34
linear solve p 6965
time step continuity errors : sum local = 1.17232e-07, global = 1.53763e-20, cumulative = -2.01759e-19
[OGL LOG] init_host_sparsity_pattern : 0 ms
[OGL LOG] matrix not stored update host matrix
[OGL LOG] update_host_mtx : 0 ms
[OGL LOG] matrix is not yet sorted, sorting host matrix
[OGL LOG] sort_host_mtx_sparsity_pattern : 0 ms
[OGL LOG] sort_host_mtx : 0 ms
[OGL LOG] init_preconditioner : 0 ms
 CG create  precond 
[OGL LOG] solve : 3 ms
BJompGKOCG:  Solving for p, Initial residual = 0.00449091, Final residual = 9.46097e-05, No Iterations 28
linear solve p 6195
time step continuity errors : sum local = 1.14806e-07, global = 9.27268e-22, cumulative = -2.00832e-19
ExecutionTime = 1.17 s  ClockTime = 0 s

End

