/*---------------------------------------------------------------------------*\
  =========                 |
  \\      /  F ield         | OpenFOAM: The Open Source CFD Toolbox
   \\    /   O peration     | Website:  https://openfoam.org
    \\  /    A nd           | Version:  8
     \\/     M anipulation  |
\*---------------------------------------------------------------------------*/
Build  : 8-ef60d22ea792
Exec   : icoFoam
Date   : Jul 28 2021
Time   : 18:25:11
Host   : "nla-gpu2.ianm.kit.edu"
PID    : 1587478
I/O    : uncollated
Case   : /home/greole/code/OBR/lidDrivenCavity3D/Variation_mesh/20/Variation_matrix_solver/BiCGStab_BJ_HIP/base
nProcs : 1
sigFpe : Enabling floating point exception trapping (FOAM_SIGFPE).
fileModificationChecking : Monitoring run-time modified files using timeStampMaster (fileModificationSkew 10)
allowSystemOperations : Allowing user-supplied system call operations

// * * * * * * * * * * * * * * * * * * * * * * * * * * * * * * * * * * * * * //
Create time

Create mesh for time = 0

Reading transportProperties

Reading field p

Reading field U

Reading/calculating face flux field phi


Starting time loop

Time = 0.001

Courant Number mean: 0 max: 0
DILUPBiCGStab:  Solving for Ux, Initial residual = 1, Final residual = 1.12203e-10, No Iterations 5
DILUPBiCGStab:  Solving for Uy:  solution singularity
DILUPBiCGStab:  Solving for Uz:  solution singularity
linear solve U 2949
[OGL LOG] init_host_sparsity_pattern : 4 ms
[OGL LOG] matrix not stored update host matrix
[OGL LOG] update_host_mtx : 1 ms
[OGL LOG] matrix is not yet sorted, compute sorting idxs
[OGL LOG] compute_sort : 56 ms
[OGL LOG] matrix is not yet sorted, sorting host matrix
[OGL LOG] sort_host_mtx_sparsity_pattern : 1 ms
[OGL LOG] sort_host_mtx : 0 ms
[OGL LOG] init_preconditioner : 56 ms
[OGL LOG] solve : 68 ms
BJhipGKOBiCGStab:  Solving for p, Initial residual = 1, Final residual = 4.77907e-05, No Iterations 104
linear solve p 607034
time step continuity errors : sum local = 4.564e-08, global = 4.66116e-21, cumulative = 4.66116e-21
[OGL LOG] init_host_sparsity_pattern : 3 ms
[OGL LOG] matrix not stored update host matrix
[OGL LOG] update_host_mtx : 1 ms
[OGL LOG] matrix is not yet sorted, sorting host matrix
[OGL LOG] sort_host_mtx_sparsity_pattern : 1 ms
[OGL LOG] sort_host_mtx : 0 ms
[OGL LOG] init_preconditioner : 0 ms
[OGL LOG] solve : 30 ms
BJhipGKOBiCGStab:  Solving for p, Initial residual = 0.41195, Final residual = 9.43165e-05, No Iterations 95
linear solve p 38183
time step continuity errors : sum local = 1.50851e-07, global = 3.76409e-21, cumulative = 8.42525e-21
ExecutionTime = 0.79 s  ClockTime = 1 s

Time = 0.002

Courant Number mean: 0.00876252 max: 0.0682839
DILUPBiCGStab:  Solving for Ux, Initial residual = 0.225394, Final residual = 1.40291e-11, No Iterations 5
DILUPBiCGStab:  Solving for Uy, Initial residual = 0.289579, Final residual = 1.19254e-11, No Iterations 5
DILUPBiCGStab:  Solving for Uz, Initial residual = 0.814013, Final residual = 4.10557e-11, No Iterations 5
linear solve U 5134
[OGL LOG] init_host_sparsity_pattern : 3 ms
[OGL LOG] matrix not stored update host matrix
[OGL LOG] update_host_mtx : 2 ms
[OGL LOG] matrix is not yet sorted, sorting host matrix
[OGL LOG] sort_host_mtx_sparsity_pattern : 1 ms
[OGL LOG] sort_host_mtx : 0 ms
[OGL LOG] init_preconditioner : 0 ms
[OGL LOG] solve : 32 ms
BJhipGKOBiCGStab:  Solving for p, Initial residual = 0.212857, Final residual = 8.37824e-06, No Iterations 102
linear solve p 40582
time step continuity errors : sum local = 1.2173e-08, global = -2.04735e-20, cumulative = -1.20483e-20
[OGL LOG] init_host_sparsity_pattern : 3 ms
[OGL LOG] matrix not stored update host matrix
[OGL LOG] update_host_mtx : 2 ms
[OGL LOG] matrix is not yet sorted, sorting host matrix
[OGL LOG] sort_host_mtx_sparsity_pattern : 1 ms
[OGL LOG] sort_host_mtx : 0 ms
[OGL LOG] init_preconditioner : 0 ms
[OGL LOG] solve : 26 ms
BJhipGKOBiCGStab:  Solving for p, Initial residual = 0.123169, Final residual = 5.54108e-05, No Iterations 83
linear solve p 34425
time step continuity errors : sum local = 8.96366e-08, global = -8.87565e-22, cumulative = -1.29359e-20
ExecutionTime = 0.92 s  ClockTime = 1 s

Time = 0.003

Courant Number mean: 0.0142445 max: 0.104362
DILUPBiCGStab:  Solving for Ux, Initial residual = 0.102627, Final residual = 5.81847e-12, No Iterations 5
DILUPBiCGStab:  Solving for Uy, Initial residual = 0.135052, Final residual = 5.20389e-12, No Iterations 5
DILUPBiCGStab:  Solving for Uz, Initial residual = 0.294246, Final residual = 1.37853e-11, No Iterations 5
linear solve U 5134
[OGL LOG] init_host_sparsity_pattern : 3 ms
[OGL LOG] matrix not stored update host matrix
[OGL LOG] update_host_mtx : 1 ms
[OGL LOG] matrix is not yet sorted, sorting host matrix
[OGL LOG] sort_host_mtx_sparsity_pattern : 1 ms
[OGL LOG] sort_host_mtx : 0 ms
[OGL LOG] init_preconditioner : 0 ms
[OGL LOG] solve : 24 ms
BJhipGKOBiCGStab:  Solving for p, Initial residual = 0.0914496, Final residual = 9.60831e-05, No Iterations 77
linear solve p 32852
time step continuity errors : sum local = 1.54265e-07, global = -2.12602e-20, cumulative = -3.41961e-20
[OGL LOG] init_host_sparsity_pattern : 3 ms
[OGL LOG] matrix not stored update host matrix
[OGL LOG] update_host_mtx : 1 ms
[OGL LOG] matrix is not yet sorted, sorting host matrix
[OGL LOG] sort_host_mtx_sparsity_pattern : 1 ms
[OGL LOG] sort_host_mtx : 0 ms
[OGL LOG] init_preconditioner : 0 ms
[OGL LOG] solve : 10 ms
BJhipGKOBiCGStab:  Solving for p, Initial residual = 0.0549048, Final residual = 9.93076e-05, No Iterations 31
linear solve p 18549
time step continuity errors : sum local = 1.17202e-07, global = 3.89925e-20, cumulative = 4.79641e-21
ExecutionTime = 1.01 s  ClockTime = 1 s

Time = 0.004

Courant Number mean: 0.0178685 max: 0.123853
DILUPBiCGStab:  Solving for Ux, Initial residual = 0.060368, Final residual = 2.84148e-12, No Iterations 5
DILUPBiCGStab:  Solving for Uy, Initial residual = 0.0810597, Final residual = 2.51658e-12, No Iterations 5
DILUPBiCGStab:  Solving for Uz, Initial residual = 0.158353, Final residual = 6.72429e-12, No Iterations 5
linear solve U 5114
[OGL LOG] init_host_sparsity_pattern : 3 ms
[OGL LOG] matrix not stored update host matrix
[OGL LOG] update_host_mtx : 1 ms
[OGL LOG] matrix is not yet sorted, sorting host matrix
[OGL LOG] sort_host_mtx_sparsity_pattern : 1 ms
[OGL LOG] sort_host_mtx : 0 ms
[OGL LOG] init_preconditioner : 0 ms
[OGL LOG] solve : 10 ms
BJhipGKOBiCGStab:  Solving for p, Initial residual = 0.0546655, Final residual = 9.30464e-05, No Iterations 33
linear solve p 19200
time step continuity errors : sum local = 7.94957e-08, global = -6.16374e-21, cumulative = -1.36733e-21
[OGL LOG] init_host_sparsity_pattern : 3 ms
[OGL LOG] matrix not stored update host matrix
[OGL LOG] update_host_mtx : 1 ms
[OGL LOG] matrix is not yet sorted, sorting host matrix
[OGL LOG] sort_host_mtx_sparsity_pattern : 1 ms
[OGL LOG] sort_host_mtx : 0 ms
[OGL LOG] init_preconditioner : 0 ms
[OGL LOG] solve : 9 ms
BJhipGKOBiCGStab:  Solving for p, Initial residual = 0.0316341, Final residual = 9.12276e-05, No Iterations 28
linear solve p 17613
time step continuity errors : sum local = 1.09272e-07, global = -5.23843e-21, cumulative = -6.60576e-21
ExecutionTime = 1.06 s  ClockTime = 1 s

Time = 0.005

Courant Number mean: 0.0204632 max: 0.135216
DILUPBiCGStab:  Solving for Ux, Initial residual = 0.0403696, Final residual = 1.60048e-12, No Iterations 5
DILUPBiCGStab:  Solving for Uy, Initial residual = 0.0549971, Final residual = 1.29619e-12, No Iterations 5
DILUPBiCGStab:  Solving for Uz, Initial residual = 0.106824, Final residual = 3.5133e-12, No Iterations 5
linear solve U 5121
[OGL LOG] init_host_sparsity_pattern : 3 ms
[OGL LOG] matrix not stored update host matrix
[OGL LOG] update_host_mtx : 1 ms
[OGL LOG] matrix is not yet sorted, sorting host matrix
[OGL LOG] sort_host_mtx_sparsity_pattern : 1 ms
[OGL LOG] sort_host_mtx : 0 ms
[OGL LOG] init_preconditioner : 0 ms
[OGL LOG] solve : 10 ms
BJhipGKOBiCGStab:  Solving for p, Initial residual = 0.0357815, Final residual = 7.15829e-05, No Iterations 32
linear solve p 18720
time step continuity errors : sum local = 8.48555e-08, global = 3.1923e-21, cumulative = -3.41346e-21
[OGL LOG] init_host_sparsity_pattern : 3 ms
[OGL LOG] matrix not stored update host matrix
[OGL LOG] update_host_mtx : 1 ms
[OGL LOG] matrix is not yet sorted, sorting host matrix
[OGL LOG] sort_host_mtx_sparsity_pattern : 1 ms
[OGL LOG] sort_host_mtx : 0 ms
[OGL LOG] init_preconditioner : 0 ms
[OGL LOG] solve : 9 ms
BJhipGKOBiCGStab:  Solving for p, Initial residual = 0.0202486, Final residual = 9.55395e-05, No Iterations 27
linear solve p 17279
time step continuity errors : sum local = 9.12358e-08, global = -2.54863e-20, cumulative = -2.88997e-20
ExecutionTime = 1.12 s  ClockTime = 1 s

Time = 0.006

Courant Number mean: 0.0225084 max: 0.142365
DILUPBiCGStab:  Solving for Ux, Initial residual = 0.0295656, Final residual = 1.18824e-12, No Iterations 5
DILUPBiCGStab:  Solving for Uy, Initial residual = 0.0406145, Final residual = 8.47382e-13, No Iterations 5
DILUPBiCGStab:  Solving for Uz, Initial residual = 0.0811933, Final residual = 2.40479e-12, No Iterations 5
linear solve U 5180
[OGL LOG] init_host_sparsity_pattern : 3 ms
[OGL LOG] matrix not stored update host matrix
[OGL LOG] update_host_mtx : 1 ms
[OGL LOG] matrix is not yet sorted, sorting host matrix
[OGL LOG] sort_host_mtx_sparsity_pattern : 1 ms
[OGL LOG] sort_host_mtx : 0 ms
[OGL LOG] init_preconditioner : 0 ms
[OGL LOG] solve : 9 ms
BJhipGKOBiCGStab:  Solving for p, Initial residual = 0.0255274, Final residual = 8.15863e-05, No Iterations 30
linear solve p 18331
time step continuity errors : sum local = 1.07062e-07, global = 8.60516e-21, cumulative = -2.02946e-20
[OGL LOG] init_host_sparsity_pattern : 3 ms
[OGL LOG] matrix not stored update host matrix
[OGL LOG] update_host_mtx : 2 ms
[OGL LOG] matrix is not yet sorted, sorting host matrix
[OGL LOG] sort_host_mtx_sparsity_pattern : 1 ms
[OGL LOG] sort_host_mtx : 0 ms
[OGL LOG] init_preconditioner : 0 ms
[OGL LOG] solve : 8 ms
BJhipGKOBiCGStab:  Solving for p, Initial residual = 0.014228, Final residual = 4.2131e-05, No Iterations 27
linear solve p 17214
time step continuity errors : sum local = 5.13758e-08, global = 9.97373e-22, cumulative = -1.92972e-20
ExecutionTime = 1.19 s  ClockTime = 1 s

Time = 0.007

Courant Number mean: 0.0241615 max: 0.147196
DILUPBiCGStab:  Solving for Ux, Initial residual = 0.022984, Final residual = 6.70076e-13, No Iterations 5
DILUPBiCGStab:  Solving for Uy, Initial residual = 0.0317594, Final residual = 6.50075e-13, No Iterations 5
DILUPBiCGStab:  Solving for Uz, Initial residual = 0.0648977, Final residual = 1.76397e-12, No Iterations 5
linear solve U 5120
[OGL LOG] init_host_sparsity_pattern : 3 ms
[OGL LOG] matrix not stored update host matrix
[OGL LOG] update_host_mtx : 2 ms
[OGL LOG] matrix is not yet sorted, sorting host matrix
[OGL LOG] sort_host_mtx_sparsity_pattern : 1 ms
[OGL LOG] sort_host_mtx : 0 ms
[OGL LOG] init_preconditioner : 0 ms
[OGL LOG] solve : 10 ms
BJhipGKOBiCGStab:  Solving for p, Initial residual = 0.0187164, Final residual = 9.29686e-05, No Iterations 31
linear solve p 18494
time step continuity errors : sum local = 1.27206e-07, global = 5.81508e-22, cumulative = -1.87157e-20
[OGL LOG] init_host_sparsity_pattern : 3 ms
[OGL LOG] matrix not stored update host matrix
[OGL LOG] update_host_mtx : 1 ms
[OGL LOG] matrix is not yet sorted, sorting host matrix
[OGL LOG] sort_host_mtx_sparsity_pattern : 1 ms
[OGL LOG] sort_host_mtx : 0 ms
[OGL LOG] init_preconditioner : 0 ms
[OGL LOG] solve : 8 ms
BJhipGKOBiCGStab:  Solving for p, Initial residual = 0.01051, Final residual = 7.3409e-05, No Iterations 27
linear solve p 17319
time step continuity errors : sum local = 9.50854e-08, global = 2.57874e-21, cumulative = -1.61369e-20
ExecutionTime = 1.25 s  ClockTime = 1 s

Time = 0.008

Courant Number mean: 0.0255324 max: 0.150665
DILUPBiCGStab:  Solving for Ux, Initial residual = 0.0184709, Final residual = 3.54525e-13, No Iterations 5
DILUPBiCGStab:  Solving for Uy, Initial residual = 0.0258154, Final residual = 5.05765e-13, No Iterations 5
DILUPBiCGStab:  Solving for Uz, Initial residual = 0.0535011, Final residual = 1.38312e-12, No Iterations 5
linear solve U 5121
[OGL LOG] init_host_sparsity_pattern : 3 ms
[OGL LOG] matrix not stored update host matrix
[OGL LOG] update_host_mtx : 1 ms
[OGL LOG] matrix is not yet sorted, sorting host matrix
[OGL LOG] sort_host_mtx_sparsity_pattern : 1 ms
[OGL LOG] sort_host_mtx : 0 ms
[OGL LOG] init_preconditioner : 0 ms
[OGL LOG] solve : 9 ms
BJhipGKOBiCGStab:  Solving for p, Initial residual = 0.0148074, Final residual = 9.77939e-05, No Iterations 30
linear solve p 18149
time step continuity errors : sum local = 1.38904e-07, global = 1.03245e-20, cumulative = -5.81249e-21
[OGL LOG] init_host_sparsity_pattern : 3 ms
[OGL LOG] matrix not stored update host matrix
[OGL LOG] update_host_mtx : 1 ms
[OGL LOG] matrix is not yet sorted, sorting host matrix
[OGL LOG] sort_host_mtx_sparsity_pattern : 1 ms
[OGL LOG] sort_host_mtx : 0 ms
[OGL LOG] init_preconditioner : 0 ms
[OGL LOG] solve : 8 ms
BJhipGKOBiCGStab:  Solving for p, Initial residual = 0.00836164, Final residual = 9.16532e-05, No Iterations 26
linear solve p 16963
time step continuity errors : sum local = 1.23748e-07, global = -1.83709e-20, cumulative = -2.41833e-20
ExecutionTime = 1.31 s  ClockTime = 1 s

Time = 0.009

Courant Number mean: 0.0266825 max: 0.153283
DILUPBiCGStab:  Solving for Ux, Initial residual = 0.0152285, Final residual = 2.02217e-13, No Iterations 5
DILUPBiCGStab:  Solving for Uy, Initial residual = 0.0215736, Final residual = 3.95216e-13, No Iterations 5
DILUPBiCGStab:  Solving for Uz, Initial residual = 0.0451512, Final residual = 1.0912e-12, No Iterations 5
linear solve U 5121
[OGL LOG] init_host_sparsity_pattern : 3 ms
[OGL LOG] matrix not stored update host matrix
[OGL LOG] update_host_mtx : 1 ms
[OGL LOG] matrix is not yet sorted, sorting host matrix
[OGL LOG] sort_host_mtx_sparsity_pattern : 1 ms
[OGL LOG] sort_host_mtx : 0 ms
[OGL LOG] init_preconditioner : 0 ms
[OGL LOG] solve : 9 ms
BJhipGKOBiCGStab:  Solving for p, Initial residual = 0.0119656, Final residual = 7.46331e-05, No Iterations 28
linear solve p 17688
time step continuity errors : sum local = 1.23381e-07, global = 4.71766e-20, cumulative = 2.29932e-20
[OGL LOG] init_host_sparsity_pattern : 3 ms
[OGL LOG] matrix not stored update host matrix
[OGL LOG] update_host_mtx : 1 ms
[OGL LOG] matrix is not yet sorted, sorting host matrix
[OGL LOG] sort_host_mtx_sparsity_pattern : 1 ms
[OGL LOG] sort_host_mtx : 0 ms
[OGL LOG] init_preconditioner : 0 ms
[OGL LOG] solve : 8 ms
BJhipGKOBiCGStab:  Solving for p, Initial residual = 0.00685539, Final residual = 8.38048e-05, No Iterations 27
linear solve p 17244
time step continuity errors : sum local = 1.24763e-07, global = -2.13456e-20, cumulative = 1.64764e-21
ExecutionTime = 1.36 s  ClockTime = 1 s

Time = 0.01

Courant Number mean: 0.0276672 max: 0.155336
DILUPBiCGStab:  Solving for Ux, Initial residual = 0.0128961, Final residual = 1.31081e-13, No Iterations 5
DILUPBiCGStab:  Solving for Uy, Initial residual = 0.0183732, Final residual = 3.10155e-13, No Iterations 5
DILUPBiCGStab:  Solving for Uz, Initial residual = 0.0387721, Final residual = 8.85315e-13, No Iterations 5
linear solve U 5144
[OGL LOG] init_host_sparsity_pattern : 3 ms
[OGL LOG] matrix not stored update host matrix
[OGL LOG] update_host_mtx : 1 ms
[OGL LOG] matrix is not yet sorted, sorting host matrix
[OGL LOG] sort_host_mtx_sparsity_pattern : 1 ms
[OGL LOG] sort_host_mtx : 0 ms
[OGL LOG] init_preconditioner : 0 ms
[OGL LOG] solve : 9 ms
BJhipGKOBiCGStab:  Solving for p, Initial residual = 0.0100013, Final residual = 8.08153e-05, No Iterations 28
linear solve p 17611
time step continuity errors : sum local = 1.34909e-07, global = 3.54972e-20, cumulative = 3.71449e-20
[OGL LOG] init_host_sparsity_pattern : 3 ms
[OGL LOG] matrix not stored update host matrix
[OGL LOG] update_host_mtx : 1 ms
[OGL LOG] matrix is not yet sorted, sorting host matrix
[OGL LOG] sort_host_mtx_sparsity_pattern : 1 ms
[OGL LOG] sort_host_mtx : 0 ms
[OGL LOG] init_preconditioner : 0 ms
[OGL LOG] solve : 9 ms
BJhipGKOBiCGStab:  Solving for p, Initial residual = 0.00580688, Final residual = 9.8583e-05, No Iterations 28
linear solve p 17559
time step continuity errors : sum local = 1.45506e-07, global = -1.94636e-20, cumulative = 1.76813e-20
ExecutionTime = 1.42 s  ClockTime = 1 s

End

