/*---------------------------------------------------------------------------*\
  =========                 |
  \\      /  F ield         | OpenFOAM: The Open Source CFD Toolbox
   \\    /   O peration     | Website:  https://openfoam.org
    \\  /    A nd           | Version:  8
     \\/     M anipulation  |
\*---------------------------------------------------------------------------*/
Build  : 8-ef60d22ea792
Exec   : icoFoam
Date   : Jul 28 2021
Time   : 22:08:32
Host   : "uc2n441.localdomain"
PID    : 3227109
I/O    : uncollated
Case   : /pfs/data5/home/kit/scc/nq7776/code/OBR/lidDrivenCavity3D/Variation_mesh/5/Variation_matrix_solver/BiCGStab_NoPrecond_OMP/base
nProcs : 1
sigFpe : Enabling floating point exception trapping (FOAM_SIGFPE).
fileModificationChecking : Monitoring run-time modified files using timeStampMaster (fileModificationSkew 10)
allowSystemOperations : Allowing user-supplied system call operations

// * * * * * * * * * * * * * * * * * * * * * * * * * * * * * * * * * * * * * //
Create time

Create mesh for time = 0

Reading transportProperties

Reading field p

Reading field U

Reading/calculating face flux field phi


Starting time loop

Time = 0.001

Courant Number mean: 0 max: 0
DILUPBiCGStab:  Solving for Ux, Initial residual = 1, Final residual = 8.38041e-30, No Iterations 5
DILUPBiCGStab:  Solving for Uy:  solution singularity
DILUPBiCGStab:  Solving for Uz:  solution singularity
linear solve U 153
[OGL LOG] init_host_sparsity_pattern : 0 ms
[OGL LOG] matrix not stored update host matrix
[OGL LOG] update_host_mtx : 0 ms
[OGL LOG] matrix is not yet sorted, compute sorting idxs
[OGL LOG] compute_sort : 0 ms
[OGL LOG] matrix is not yet sorted, sorting host matrix
[OGL LOG] sort_host_mtx_sparsity_pattern : 0 ms
[OGL LOG] sort_host_mtx : 0 ms
[OGL LOG] init_preconditioner : 0 ms
[OGL LOG] solve : 2 ms
noneompGKOBiCGStab:  Solving for p, Initial residual = 1, Final residual = 7.38526e-05, No Iterations 23
linear solve p 5185
time step continuity errors : sum local = 4.17229e-07, global = -1.94553e-21, cumulative = -1.94553e-21
[OGL LOG] init_host_sparsity_pattern : 0 ms
[OGL LOG] matrix not stored update host matrix
[OGL LOG] update_host_mtx : 0 ms
[OGL LOG] matrix is not yet sorted, sorting host matrix
[OGL LOG] sort_host_mtx_sparsity_pattern : 0 ms
[OGL LOG] sort_host_mtx : 0 ms
[OGL LOG] init_preconditioner : 0 ms
[OGL LOG] solve : 1 ms
noneompGKOBiCGStab:  Solving for p, Initial residual = 0.0551428, Final residual = 4.63133e-05, No Iterations 21
linear solve p 2267
time step continuity errors : sum local = 3.9527e-07, global = -3.65945e-21, cumulative = -5.60498e-21
ExecutionTime = 0.07 s  ClockTime = 1 s

Time = 0.002

Courant Number mean: 0.000593205 max: 0.00137351
DILUPBiCGStab:  Solving for Ux, Initial residual = 0.290606, Final residual = 1.32992e-30, No Iterations 5
DILUPBiCGStab:  Solving for Uy, Initial residual = 0.317534, Final residual = 1.13382e-30, No Iterations 5
DILUPBiCGStab:  Solving for Uz, Initial residual = 0.356489, Final residual = 2.18427e-30, No Iterations 5
linear solve U 108
[OGL LOG] init_host_sparsity_pattern : 0 ms
[OGL LOG] matrix not stored update host matrix
[OGL LOG] update_host_mtx : 0 ms
[OGL LOG] matrix is not yet sorted, sorting host matrix
[OGL LOG] sort_host_mtx_sparsity_pattern : 0 ms
[OGL LOG] sort_host_mtx : 0 ms
[OGL LOG] init_preconditioner : 0 ms
[OGL LOG] solve : 1 ms
noneompGKOBiCGStab:  Solving for p, Initial residual = 0.111073, Final residual = 8.43018e-05, No Iterations 19
linear solve p 2063
time step continuity errors : sum local = 2.65212e-07, global = -2.09153e-21, cumulative = -7.6965e-21
[OGL LOG] init_host_sparsity_pattern : 0 ms
[OGL LOG] matrix not stored update host matrix
[OGL LOG] update_host_mtx : 0 ms
[OGL LOG] matrix is not yet sorted, sorting host matrix
[OGL LOG] sort_host_mtx_sparsity_pattern : 0 ms
[OGL LOG] sort_host_mtx : 0 ms
[OGL LOG] init_preconditioner : 0 ms
[OGL LOG] solve : 0 ms
noneompGKOBiCGStab:  Solving for p, Initial residual = 0.00321998, Final residual = 9.87181e-05, No Iterations 7
linear solve p 951
time step continuity errors : sum local = 8.35409e-08, global = -9.95098e-22, cumulative = -8.6916e-21
ExecutionTime = 0.08 s  ClockTime = 1 s

Time = 0.003

Courant Number mean: 0.00113049 max: 0.00263293
DILUPBiCGStab:  Solving for Ux, Initial residual = 0.161921, Final residual = 7.37706e-31, No Iterations 5
DILUPBiCGStab:  Solving for Uy, Initial residual = 0.186653, Final residual = 6.80063e-31, No Iterations 5
DILUPBiCGStab:  Solving for Uz, Initial residual = 0.228098, Final residual = 1.61969e-30, No Iterations 5
linear solve U 104
[OGL LOG] init_host_sparsity_pattern : 0 ms
[OGL LOG] matrix not stored update host matrix
[OGL LOG] update_host_mtx : 0 ms
[OGL LOG] matrix is not yet sorted, sorting host matrix
[OGL LOG] sort_host_mtx_sparsity_pattern : 0 ms
[OGL LOG] sort_host_mtx : 0 ms
[OGL LOG] init_preconditioner : 0 ms
[OGL LOG] solve : 1 ms
noneompGKOBiCGStab:  Solving for p, Initial residual = 0.0564848, Final residual = 9.5065e-05, No Iterations 15
linear solve p 1701
time step continuity errors : sum local = 1.49613e-07, global = 5.17815e-21, cumulative = -3.51345e-21
[OGL LOG] init_host_sparsity_pattern : 0 ms
[OGL LOG] matrix not stored update host matrix
[OGL LOG] update_host_mtx : 0 ms
[OGL LOG] matrix is not yet sorted, sorting host matrix
[OGL LOG] sort_host_mtx_sparsity_pattern : 0 ms
[OGL LOG] sort_host_mtx : 0 ms
[OGL LOG] init_preconditioner : 0 ms
[OGL LOG] solve : 0 ms
noneompGKOBiCGStab:  Solving for p, Initial residual = 0.00162574, Final residual = 9.76731e-05, No Iterations 4
linear solve p 727
time step continuity errors : sum local = 1.10517e-07, global = 1.09122e-20, cumulative = 7.39872e-21
ExecutionTime = 0.1 s  ClockTime = 1 s

Time = 0.004

Courant Number mean: 0.00161826 max: 0.00379118
DILUPBiCGStab:  Solving for Ux, Initial residual = 0.10885, Final residual = 5.0142e-31, No Iterations 5
DILUPBiCGStab:  Solving for Uy, Initial residual = 0.129134, Final residual = 4.60822e-31, No Iterations 5
DILUPBiCGStab:  Solving for Uz, Initial residual = 0.17268, Final residual = 1.00852e-30, No Iterations 5
linear solve U 104
[OGL LOG] init_host_sparsity_pattern : 0 ms
[OGL LOG] matrix not stored update host matrix
[OGL LOG] update_host_mtx : 0 ms
[OGL LOG] matrix is not yet sorted, sorting host matrix
[OGL LOG] sort_host_mtx_sparsity_pattern : 0 ms
[OGL LOG] sort_host_mtx : 0 ms
[OGL LOG] init_preconditioner : 0 ms
[OGL LOG] solve : 1 ms
noneompGKOBiCGStab:  Solving for p, Initial residual = 0.0347263, Final residual = 7.2904e-05, No Iterations 16
linear solve p 1750
time step continuity errors : sum local = 3.13958e-07, global = 1.13307e-20, cumulative = 1.87294e-20
[OGL LOG] init_host_sparsity_pattern : 0 ms
[OGL LOG] matrix not stored update host matrix
[OGL LOG] update_host_mtx : 0 ms
[OGL LOG] matrix is not yet sorted, sorting host matrix
[OGL LOG] sort_host_mtx_sparsity_pattern : 0 ms
[OGL LOG] sort_host_mtx : 0 ms
[OGL LOG] init_preconditioner : 0 ms
[OGL LOG] solve : 0 ms
noneompGKOBiCGStab:  Solving for p, Initial residual = 0.00143487, Final residual = 9.637e-05, No Iterations 4
linear solve p 735
time step continuity errors : sum local = 1.16428e-07, global = -7.18324e-21, cumulative = 1.15462e-20
ExecutionTime = 0.12 s  ClockTime = 1 s

Time = 0.005

Courant Number mean: 0.00206191 max: 0.00485803
DILUPBiCGStab:  Solving for Ux, Initial residual = 0.0800506, Final residual = 3.73219e-31, No Iterations 5
DILUPBiCGStab:  Solving for Uy, Initial residual = 0.0966999, Final residual = 3.34159e-31, No Iterations 5
DILUPBiCGStab:  Solving for Uz, Initial residual = 0.139392, Final residual = 7.12533e-31, No Iterations 5
linear solve U 104
[OGL LOG] init_host_sparsity_pattern : 0 ms
[OGL LOG] matrix not stored update host matrix
[OGL LOG] update_host_mtx : 0 ms
[OGL LOG] matrix is not yet sorted, sorting host matrix
[OGL LOG] sort_host_mtx_sparsity_pattern : 0 ms
[OGL LOG] sort_host_mtx : 0 ms
[OGL LOG] init_preconditioner : 0 ms
[OGL LOG] solve : 1 ms
noneompGKOBiCGStab:  Solving for p, Initial residual = 0.0235294, Final residual = 7.11586e-05, No Iterations 16
linear solve p 1696
time step continuity errors : sum local = 3.30595e-07, global = -6.59098e-21, cumulative = 4.95523e-21
[OGL LOG] init_host_sparsity_pattern : 0 ms
[OGL LOG] matrix not stored update host matrix
[OGL LOG] update_host_mtx : 0 ms
[OGL LOG] matrix is not yet sorted, sorting host matrix
[OGL LOG] sort_host_mtx_sparsity_pattern : 0 ms
[OGL LOG] sort_host_mtx : 0 ms
[OGL LOG] init_preconditioner : 0 ms
[OGL LOG] solve : 0 ms
noneompGKOBiCGStab:  Solving for p, Initial residual = 0.00119008, Final residual = 9.93486e-05, No Iterations 4
linear solve p 684
time step continuity errors : sum local = 1.26919e-07, global = -8.24865e-21, cumulative = -3.29342e-21
ExecutionTime = 0.13 s  ClockTime = 1 s

Time = 0.006

Courant Number mean: 0.00246616 max: 0.00584206
DILUPBiCGStab:  Solving for Ux, Initial residual = 0.0620427, Final residual = 2.92036e-31, No Iterations 5
DILUPBiCGStab:  Solving for Uy, Initial residual = 0.0759762, Final residual = 2.54625e-31, No Iterations 5
DILUPBiCGStab:  Solving for Uz, Initial residual = 0.116418, Final residual = 6.12707e-31, No Iterations 5
linear solve U 98
[OGL LOG] init_host_sparsity_pattern : 0 ms
[OGL LOG] matrix not stored update host matrix
[OGL LOG] update_host_mtx : 0 ms
[OGL LOG] matrix is not yet sorted, sorting host matrix
[OGL LOG] sort_host_mtx_sparsity_pattern : 0 ms
[OGL LOG] sort_host_mtx : 0 ms
[OGL LOG] init_preconditioner : 0 ms
[OGL LOG] solve : 1 ms
noneompGKOBiCGStab:  Solving for p, Initial residual = 0.0172251, Final residual = 7.05132e-05, No Iterations 16
linear solve p 1650
time step continuity errors : sum local = 2.98781e-07, global = -5.63475e-21, cumulative = -8.92817e-21
[OGL LOG] init_host_sparsity_pattern : 0 ms
[OGL LOG] matrix not stored update host matrix
[OGL LOG] update_host_mtx : 0 ms
[OGL LOG] matrix is not yet sorted, sorting host matrix
[OGL LOG] sort_host_mtx_sparsity_pattern : 0 ms
[OGL LOG] sort_host_mtx : 0 ms
[OGL LOG] init_preconditioner : 0 ms
[OGL LOG] solve : 0 ms
noneompGKOBiCGStab:  Solving for p, Initial residual = 0.000968386, Final residual = 9.99231e-05, No Iterations 4
linear solve p 705
time step continuity errors : sum local = 1.32477e-07, global = -6.87553e-21, cumulative = -1.58037e-20
ExecutionTime = 0.15 s  ClockTime = 1 s

Time = 0.007

Courant Number mean: 0.0028351 max: 0.00675081
DILUPBiCGStab:  Solving for Ux, Initial residual = 0.0497699, Final residual = 2.3593e-31, No Iterations 5
DILUPBiCGStab:  Solving for Uy, Initial residual = 0.0616496, Final residual = 2.02611e-31, No Iterations 5
DILUPBiCGStab:  Solving for Uz, Initial residual = 0.0990857, Final residual = 6.14194e-31, No Iterations 5
linear solve U 99
[OGL LOG] init_host_sparsity_pattern : 0 ms
[OGL LOG] matrix not stored update host matrix
[OGL LOG] update_host_mtx : 0 ms
[OGL LOG] matrix is not yet sorted, sorting host matrix
[OGL LOG] sort_host_mtx_sparsity_pattern : 0 ms
[OGL LOG] sort_host_mtx : 0 ms
[OGL LOG] init_preconditioner : 0 ms
[OGL LOG] solve : 1 ms
noneompGKOBiCGStab:  Solving for p, Initial residual = 0.0132517, Final residual = 9.54317e-05, No Iterations 15
linear solve p 1587
time step continuity errors : sum local = 3.07432e-07, global = -7.52073e-21, cumulative = -2.33244e-20
[OGL LOG] init_host_sparsity_pattern : 0 ms
[OGL LOG] matrix not stored update host matrix
[OGL LOG] update_host_mtx : 0 ms
[OGL LOG] matrix is not yet sorted, sorting host matrix
[OGL LOG] sort_host_mtx_sparsity_pattern : 0 ms
[OGL LOG] sort_host_mtx : 0 ms
[OGL LOG] init_preconditioner : 0 ms
[OGL LOG] solve : 0 ms
noneompGKOBiCGStab:  Solving for p, Initial residual = 0.000796893, Final residual = 9.84003e-05, No Iterations 10
linear solve p 1137
time step continuity errors : sum local = 1.15485e-07, global = 5.11528e-21, cumulative = -1.82091e-20
ExecutionTime = 0.16 s  ClockTime = 1 s

Time = 0.008

Courant Number mean: 0.00317237 max: 0.00759076
DILUPBiCGStab:  Solving for Ux, Initial residual = 0.0409224, Final residual = 1.95755e-31, No Iterations 5
DILUPBiCGStab:  Solving for Uy, Initial residual = 0.0512063, Final residual = 1.67092e-31, No Iterations 5
DILUPBiCGStab:  Solving for Uz, Initial residual = 0.0860475, Final residual = 6.20586e-31, No Iterations 5
linear solve U 101
[OGL LOG] init_host_sparsity_pattern : 0 ms
[OGL LOG] matrix not stored update host matrix
[OGL LOG] update_host_mtx : 0 ms
[OGL LOG] matrix is not yet sorted, sorting host matrix
[OGL LOG] sort_host_mtx_sparsity_pattern : 0 ms
[OGL LOG] sort_host_mtx : 0 ms
[OGL LOG] init_preconditioner : 0 ms
[OGL LOG] solve : 1 ms
noneompGKOBiCGStab:  Solving for p, Initial residual = 0.0106191, Final residual = 9.45638e-05, No Iterations 15
linear solve p 1630
time step continuity errors : sum local = 3.46246e-07, global = -2.17515e-20, cumulative = -3.99607e-20
[OGL LOG] init_host_sparsity_pattern : 0 ms
[OGL LOG] matrix not stored update host matrix
[OGL LOG] update_host_mtx : 0 ms
[OGL LOG] matrix is not yet sorted, sorting host matrix
[OGL LOG] sort_host_mtx_sparsity_pattern : 0 ms
[OGL LOG] sort_host_mtx : 0 ms
[OGL LOG] init_preconditioner : 0 ms
[OGL LOG] solve : 0 ms
noneompGKOBiCGStab:  Solving for p, Initial residual = 0.000845978, Final residual = 9.66128e-05, No Iterations 10
linear solve p 1167
time step continuity errors : sum local = 1.87599e-07, global = -6.73656e-21, cumulative = -4.66972e-20
ExecutionTime = 0.18 s  ClockTime = 1 s

Time = 0.009

Courant Number mean: 0.00348097 max: 0.00836821
DILUPBiCGStab:  Solving for Ux, Initial residual = 0.0342387, Final residual = 1.65808e-31, No Iterations 5
DILUPBiCGStab:  Solving for Uy, Initial residual = 0.0432896, Final residual = 1.40374e-31, No Iterations 5
DILUPBiCGStab:  Solving for Uz, Initial residual = 0.0758173, Final residual = 5.86278e-31, No Iterations 5
linear solve U 98
[OGL LOG] init_host_sparsity_pattern : 0 ms
[OGL LOG] matrix not stored update host matrix
[OGL LOG] update_host_mtx : 0 ms
[OGL LOG] matrix is not yet sorted, sorting host matrix
[OGL LOG] sort_host_mtx_sparsity_pattern : 0 ms
[OGL LOG] sort_host_mtx : 0 ms
[OGL LOG] init_preconditioner : 0 ms
[OGL LOG] solve : 1 ms
noneompGKOBiCGStab:  Solving for p, Initial residual = 0.00877948, Final residual = 8.50498e-05, No Iterations 15
linear solve p 1591
time step continuity errors : sum local = 3.49465e-07, global = 1.39297e-21, cumulative = -4.53043e-20
[OGL LOG] init_host_sparsity_pattern : 0 ms
[OGL LOG] matrix not stored update host matrix
[OGL LOG] update_host_mtx : 0 ms
[OGL LOG] matrix is not yet sorted, sorting host matrix
[OGL LOG] sort_host_mtx_sparsity_pattern : 0 ms
[OGL LOG] sort_host_mtx : 0 ms
[OGL LOG] init_preconditioner : 0 ms
[OGL LOG] solve : 0 ms
noneompGKOBiCGStab:  Solving for p, Initial residual = 0.000773687, Final residual = 9.93015e-05, No Iterations 7
linear solve p 933
time step continuity errors : sum local = 1.30295e-07, global = -9.5589e-21, cumulative = -5.48632e-20
ExecutionTime = 0.19 s  ClockTime = 1 s

Time = 0.01

Courant Number mean: 0.00376377 max: 0.00908819
DILUPBiCGStab:  Solving for Ux, Initial residual = 0.0290469, Final residual = 1.43089e-31, No Iterations 5
DILUPBiCGStab:  Solving for Uy, Initial residual = 0.0371288, Final residual = 1.19391e-31, No Iterations 5
DILUPBiCGStab:  Solving for Uz, Initial residual = 0.0678714, Final residual = 5.10835e-31, No Iterations 5
linear solve U 97
[OGL LOG] init_host_sparsity_pattern : 0 ms
[OGL LOG] matrix not stored update host matrix
[OGL LOG] update_host_mtx : 0 ms
[OGL LOG] matrix is not yet sorted, sorting host matrix
[OGL LOG] sort_host_mtx_sparsity_pattern : 0 ms
[OGL LOG] sort_host_mtx : 0 ms
[OGL LOG] init_preconditioner : 0 ms
[OGL LOG] solve : 1 ms
noneompGKOBiCGStab:  Solving for p, Initial residual = 0.00735856, Final residual = 7.71632e-05, No Iterations 15
linear solve p 1580
time step continuity errors : sum local = 3.7559e-07, global = 3.28556e-20, cumulative = -2.20076e-20
[OGL LOG] init_host_sparsity_pattern : 0 ms
[OGL LOG] matrix not stored update host matrix
[OGL LOG] update_host_mtx : 0 ms
[OGL LOG] matrix is not yet sorted, sorting host matrix
[OGL LOG] sort_host_mtx_sparsity_pattern : 0 ms
[OGL LOG] sort_host_mtx : 0 ms
[OGL LOG] init_preconditioner : 0 ms
[OGL LOG] solve : 0 ms
noneompGKOBiCGStab:  Solving for p, Initial residual = 0.000832729, Final residual = 9.8955e-05, No Iterations 5
linear solve p 724
time step continuity errors : sum local = 1.21436e-07, global = 2.80911e-20, cumulative = 6.0835e-21
ExecutionTime = 0.21 s  ClockTime = 1 s

End

