/*---------------------------------------------------------------------------*\
  =========                 |
  \\      /  F ield         | OpenFOAM: The Open Source CFD Toolbox
   \\    /   O peration     | Website:  https://openfoam.org
    \\  /    A nd           | Version:  8
     \\/     M anipulation  |
\*---------------------------------------------------------------------------*/
Build  : 8-40a5a48f630f
Exec   : icoFoam
Date   : Jul 28 2021
Time   : 13:37:11
Host   : "uc2n449.localdomain"
PID    : 1433194
I/O    : uncollated
Case   : /pfs/data5/home/kit/scc/nq7776/code/OBR/lidDrivenCavity3D/Variation_mesh/30/Variation_matrix_solver/BiCGStab_BJ_OMP/base
nProcs : 1
sigFpe : Enabling floating point exception trapping (FOAM_SIGFPE).
fileModificationChecking : Monitoring run-time modified files using timeStampMaster (fileModificationSkew 10)
allowSystemOperations : Allowing user-supplied system call operations

// * * * * * * * * * * * * * * * * * * * * * * * * * * * * * * * * * * * * * //
Create time

Create mesh for time = 0

Reading transportProperties

Reading field p

Reading field U

Reading/calculating face flux field phi


Starting time loop

Time = 0.001

Courant Number mean: 0 max: 0
nonePBiCGStab:  Solving for Ux, Initial residual = 1, Final residual = 0.00734209, No Iterations 5
nonePBiCGStab:  Solving for Uy, Initial residual = 0, Final residual = 0, No Iterations 0
nonePBiCGStab:  Solving for Uz, Initial residual = 0, Final residual = 0, No Iterations 0
linear solve U 5
[OGL LOG] init_host_sparsity_pattern : 7 ms
[OGL LOG] matrix not stored update host matrix
[OGL LOG] update_host_mtx : 4 ms
[OGL LOG] matrix is not yet sorted, compute sorting idxs
[OGL LOG] compute_sort : 190 ms
[OGL LOG] matrix is not yet sorted, sorting host matrix
[OGL LOG] sort_host_mtx_sparsity_pattern : 5 ms
[OGL LOG] sort_host_mtx : 3 ms
[OGL LOG] init_preconditioner : 10 ms
[OGL LOG] solve : 243 ms
BJompGKOBiCGStab:  Solving for p, Initial residual = 1, Final residual = 3.90715e-05, No Iterations 151
linear solve p 486
time step continuity errors : sum local = 6.50682e-07, global = 2.56922e-21, cumulative = 2.56922e-21
[OGL LOG] init_host_sparsity_pattern : 8 ms
[OGL LOG] matrix not stored update host matrix
[OGL LOG] update_host_mtx : 4 ms
[OGL LOG] matrix is not yet sorted, sorting host matrix
[OGL LOG] sort_host_mtx_sparsity_pattern : 5 ms
[OGL LOG] sort_host_mtx : 2 ms
[OGL LOG] init_preconditioner : 0 ms
[OGL LOG] solve : 115 ms
BJompGKOBiCGStab:  Solving for p, Initial residual = 0.53101, Final residual = 8.2917e-05, No Iterations 140
linear solve p 139
time step continuity errors : sum local = 1.35477e-06, global = -5.33221e-21, cumulative = -2.76299e-21
ExecutionTime = 13.42 s  ClockTime = 1 s

Time = 0.002

Courant Number mean: 0.0150836 max: 0.148279
nonePBiCGStab:  Solving for Ux, Initial residual = 0.19568, Final residual = 0.00210012, No Iterations 5
nonePBiCGStab:  Solving for Uy, Initial residual = 0.282002, Final residual = 0.00195119, No Iterations 5
nonePBiCGStab:  Solving for Uz, Initial residual = 0.890187, Final residual = 0.00962463, No Iterations 5
linear solve U 10
[OGL LOG] init_host_sparsity_pattern : 7 ms
[OGL LOG] matrix not stored update host matrix
[OGL LOG] update_host_mtx : 3 ms
[OGL LOG] matrix is not yet sorted, sorting host matrix
[OGL LOG] sort_host_mtx_sparsity_pattern : 5 ms
[OGL LOG] sort_host_mtx : 2 ms
[OGL LOG] init_preconditioner : 0 ms
[OGL LOG] solve : 117 ms
BJompGKOBiCGStab:  Solving for p, Initial residual = 0.35298, Final residual = 9.60509e-05, No Iterations 142
linear solve p 139
time step continuity errors : sum local = 4.2487e-06, global = 5.32332e-21, cumulative = 2.56033e-21
[OGL LOG] init_host_sparsity_pattern : 7 ms
[OGL LOG] matrix not stored update host matrix
[OGL LOG] update_host_mtx : 3 ms
[OGL LOG] matrix is not yet sorted, sorting host matrix
[OGL LOG] sort_host_mtx_sparsity_pattern : 5 ms
[OGL LOG] sort_host_mtx : 2 ms
[OGL LOG] init_preconditioner : 0 ms
[OGL LOG] solve : 120 ms
BJompGKOBiCGStab:  Solving for p, Initial residual = 0.255, Final residual = 8.84603e-05, No Iterations 145
linear solve p 142
time step continuity errors : sum local = 3.39384e-07, global = -4.13983e-21, cumulative = -1.5795e-21
ExecutionTime = 23.47 s  ClockTime = 1 s

Time = 0.003

Courant Number mean: 0.0234555 max: 0.2041
nonePBiCGStab:  Solving for Ux, Initial residual = 0.0795017, Final residual = 0.000626901, No Iterations 5
nonePBiCGStab:  Solving for Uy, Initial residual = 0.11738, Final residual = 0.000704227, No Iterations 5
nonePBiCGStab:  Solving for Uz, Initial residual = 0.254055, Final residual = 0.0035474, No Iterations 5
linear solve U 9
[OGL LOG] init_host_sparsity_pattern : 7 ms
[OGL LOG] matrix not stored update host matrix
[OGL LOG] update_host_mtx : 3 ms
[OGL LOG] matrix is not yet sorted, sorting host matrix
[OGL LOG] sort_host_mtx_sparsity_pattern : 5 ms
[OGL LOG] sort_host_mtx : 2 ms
[OGL LOG] init_preconditioner : 0 ms
[OGL LOG] solve : 50 ms
BJompGKOBiCGStab:  Solving for p, Initial residual = 0.112705, Final residual = 9.44163e-05, No Iterations 61
linear solve p 72
time step continuity errors : sum local = 1.00129e-07, global = 1.01859e-20, cumulative = 8.6064e-21
[OGL LOG] init_host_sparsity_pattern : 7 ms
[OGL LOG] matrix not stored update host matrix
[OGL LOG] update_host_mtx : 3 ms
[OGL LOG] matrix is not yet sorted, sorting host matrix
[OGL LOG] sort_host_mtx_sparsity_pattern : 5 ms
[OGL LOG] sort_host_mtx : 2 ms
[OGL LOG] init_preconditioner : 0 ms
[OGL LOG] solve : 49 ms
BJompGKOBiCGStab:  Solving for p, Initial residual = 0.0823072, Final residual = 9.9608e-05, No Iterations 59
linear solve p 71
time step continuity errors : sum local = 1.08867e-07, global = -2.3627e-20, cumulative = -1.50206e-20
ExecutionTime = 28.05 s  ClockTime = 1 s

Time = 0.004

Courant Number mean: 0.0285804 max: 0.22629
nonePBiCGStab:  Solving for Ux, Initial residual = 0.0461337, Final residual = 0.000146669, No Iterations 5
nonePBiCGStab:  Solving for Uy, Initial residual = 0.0703179, Final residual = 0.000162224, No Iterations 5
nonePBiCGStab:  Solving for Uz, Initial residual = 0.119237, Final residual = 0.000592274, No Iterations 5
linear solve U 9
[OGL LOG] init_host_sparsity_pattern : 7 ms
[OGL LOG] matrix not stored update host matrix
[OGL LOG] update_host_mtx : 3 ms
[OGL LOG] matrix is not yet sorted, sorting host matrix
[OGL LOG] sort_host_mtx_sparsity_pattern : 5 ms
[OGL LOG] sort_host_mtx : 2 ms
[OGL LOG] init_preconditioner : 0 ms
[OGL LOG] solve : 95 ms
BJompGKOBiCGStab:  Solving for p, Initial residual = 0.0572132, Final residual = 9.42495e-05, No Iterations 116
linear solve p 117
time step continuity errors : sum local = 1.05422e-07, global = -2.9719e-20, cumulative = -4.47396e-20
[OGL LOG] init_host_sparsity_pattern : 7 ms
[OGL LOG] matrix not stored update host matrix
[OGL LOG] update_host_mtx : 3 ms
[OGL LOG] matrix is not yet sorted, sorting host matrix
[OGL LOG] sort_host_mtx_sparsity_pattern : 5 ms
[OGL LOG] sort_host_mtx : 2 ms
[OGL LOG] init_preconditioner : 0 ms
[OGL LOG] solve : 43 ms
BJompGKOBiCGStab:  Solving for p, Initial residual = 0.0418295, Final residual = 8.83474e-05, No Iterations 52
linear solve p 65
time step continuity errors : sum local = 1.1432e-07, global = -2.76348e-20, cumulative = -7.23744e-20
ExecutionTime = 34.18 s  ClockTime = 1 s

Time = 0.005

Courant Number mean: 0.032278 max: 0.237311
nonePBiCGStab:  Solving for Ux, Initial residual = 0.0314585, Final residual = 7.14858e-05, No Iterations 5
nonePBiCGStab:  Solving for Uy, Initial residual = 0.048581, Final residual = 8.77931e-05, No Iterations 5
nonePBiCGStab:  Solving for Uz, Initial residual = 0.0861302, Final residual = 0.00053857, No Iterations 5
linear solve U 9
[OGL LOG] init_host_sparsity_pattern : 7 ms
[OGL LOG] matrix not stored update host matrix
[OGL LOG] update_host_mtx : 3 ms
[OGL LOG] matrix is not yet sorted, sorting host matrix
[OGL LOG] sort_host_mtx_sparsity_pattern : 5 ms
[OGL LOG] sort_host_mtx : 2 ms
[OGL LOG] init_preconditioner : 0 ms
[OGL LOG] solve : 45 ms
BJompGKOBiCGStab:  Solving for p, Initial residual = 0.0356825, Final residual = 7.37233e-05, No Iterations 55
linear solve p 67
time step continuity errors : sum local = 9.20312e-08, global = 2.20746e-20, cumulative = -5.02998e-20
[OGL LOG] init_host_sparsity_pattern : 7 ms
[OGL LOG] matrix not stored update host matrix
[OGL LOG] update_host_mtx : 3 ms
[OGL LOG] matrix is not yet sorted, sorting host matrix
[OGL LOG] sort_host_mtx_sparsity_pattern : 5 ms
[OGL LOG] sort_host_mtx : 2 ms
[OGL LOG] init_preconditioner : 0 ms
[OGL LOG] solve : 41 ms
BJompGKOBiCGStab:  Solving for p, Initial residual = 0.0262922, Final residual = 6.54357e-05, No Iterations 49
linear solve p 62
time step continuity errors : sum local = 1.2333e-07, global = -1.75011e-21, cumulative = -5.20499e-20
ExecutionTime = 38.19 s  ClockTime = 1 s

Time = 0.006

Courant Number mean: 0.0351476 max: 0.243821
nonePBiCGStab:  Solving for Ux, Initial residual = 0.0235469, Final residual = 3.71719e-05, No Iterations 5
nonePBiCGStab:  Solving for Uy, Initial residual = 0.0366189, Final residual = 4.67676e-05, No Iterations 5
nonePBiCGStab:  Solving for Uz, Initial residual = 0.0656145, Final residual = 0.000228728, No Iterations 5
linear solve U 9
[OGL LOG] init_host_sparsity_pattern : 7 ms
[OGL LOG] matrix not stored update host matrix
[OGL LOG] update_host_mtx : 3 ms
[OGL LOG] matrix is not yet sorted, sorting host matrix
[OGL LOG] sort_host_mtx_sparsity_pattern : 5 ms
[OGL LOG] sort_host_mtx : 2 ms
[OGL LOG] init_preconditioner : 0 ms
[OGL LOG] solve : 40 ms
BJompGKOBiCGStab:  Solving for p, Initial residual = 0.0252332, Final residual = 9.69213e-05, No Iterations 49
linear solve p 62
time step continuity errors : sum local = 8.79257e-08, global = -1.29288e-20, cumulative = -6.49787e-20
[OGL LOG] init_host_sparsity_pattern : 7 ms
[OGL LOG] matrix not stored update host matrix
[OGL LOG] update_host_mtx : 3 ms
[OGL LOG] matrix is not yet sorted, sorting host matrix
[OGL LOG] sort_host_mtx_sparsity_pattern : 5 ms
[OGL LOG] sort_host_mtx : 2 ms
[OGL LOG] init_preconditioner : 0 ms
[OGL LOG] solve : 45 ms
BJompGKOBiCGStab:  Solving for p, Initial residual = 0.0187327, Final residual = 8.34204e-05, No Iterations 50
linear solve p 71
time step continuity errors : sum local = 9.18772e-08, global = -2.42551e-20, cumulative = -8.92338e-20
ExecutionTime = 42.39 s  ClockTime = 2 s

Time = 0.007

Courant Number mean: 0.0374486 max: 0.248185
nonePBiCGStab:  Solving for Ux, Initial residual = 0.0185828, Final residual = 2.14959e-05, No Iterations 5
nonePBiCGStab:  Solving for Uy, Initial residual = 0.0291449, Final residual = 2.93005e-05, No Iterations 5
nonePBiCGStab:  Solving for Uz, Initial residual = 0.0536911, Final residual = 0.000152421, No Iterations 5
linear solve U 9
[OGL LOG] init_host_sparsity_pattern : 7 ms
[OGL LOG] matrix not stored update host matrix
[OGL LOG] update_host_mtx : 3 ms
[OGL LOG] matrix is not yet sorted, sorting host matrix
[OGL LOG] sort_host_mtx_sparsity_pattern : 5 ms
[OGL LOG] sort_host_mtx : 2 ms
[OGL LOG] init_preconditioner : 0 ms
[OGL LOG] solve : 41 ms
BJompGKOBiCGStab:  Solving for p, Initial residual = 0.0196298, Final residual = 9.51917e-05, No Iterations 50
linear solve p 64
time step continuity errors : sum local = 1.03152e-07, global = -1.65349e-20, cumulative = -1.05769e-19
[OGL LOG] init_host_sparsity_pattern : 7 ms
[OGL LOG] matrix not stored update host matrix
[OGL LOG] update_host_mtx : 3 ms
[OGL LOG] matrix is not yet sorted, sorting host matrix
[OGL LOG] sort_host_mtx_sparsity_pattern : 5 ms
[OGL LOG] sort_host_mtx : 2 ms
[OGL LOG] init_preconditioner : 0 ms
[OGL LOG] solve : 38 ms
BJompGKOBiCGStab:  Solving for p, Initial residual = 0.0147348, Final residual = 5.32408e-05, No Iterations 46
linear solve p 61
time step continuity errors : sum local = 6.61725e-08, global = 1.29929e-21, cumulative = -1.04469e-19
ExecutionTime = 46.04 s  ClockTime = 2 s

Time = 0.008

Courant Number mean: 0.0393443 max: 0.251358
nonePBiCGStab:  Solving for Ux, Initial residual = 0.01516, Final residual = 1.27581e-05, No Iterations 5
nonePBiCGStab:  Solving for Uy, Initial residual = 0.0239851, Final residual = 1.94067e-05, No Iterations 5
nonePBiCGStab:  Solving for Uz, Initial residual = 0.0451917, Final residual = 9.38064e-05, No Iterations 5
linear solve U 9
[OGL LOG] init_host_sparsity_pattern : 7 ms
[OGL LOG] matrix not stored update host matrix
[OGL LOG] update_host_mtx : 4 ms
[OGL LOG] matrix is not yet sorted, sorting host matrix
[OGL LOG] sort_host_mtx_sparsity_pattern : 5 ms
[OGL LOG] sort_host_mtx : 2 ms
[OGL LOG] init_preconditioner : 0 ms
[OGL LOG] solve : 40 ms
BJompGKOBiCGStab:  Solving for p, Initial residual = 0.0159128, Final residual = 9.36152e-05, No Iterations 49
linear solve p 63
time step continuity errors : sum local = 1.02237e-07, global = 4.28094e-20, cumulative = -6.16601e-20
[OGL LOG] init_host_sparsity_pattern : 7 ms
[OGL LOG] matrix not stored update host matrix
[OGL LOG] update_host_mtx : 4 ms
[OGL LOG] matrix is not yet sorted, sorting host matrix
[OGL LOG] sort_host_mtx_sparsity_pattern : 5 ms
[OGL LOG] sort_host_mtx : 2 ms
[OGL LOG] init_preconditioner : 0 ms
[OGL LOG] solve : 37 ms
BJompGKOBiCGStab:  Solving for p, Initial residual = 0.0120768, Final residual = 9.79272e-05, No Iterations 45
linear solve p 61
time step continuity errors : sum local = 1.14675e-07, global = 4.26957e-20, cumulative = -1.89644e-20
ExecutionTime = 49.73 s  ClockTime = 2 s

Time = 0.009

Courant Number mean: 0.0409889 max: 0.253796
nonePBiCGStab:  Solving for Ux, Initial residual = 0.0126814, Final residual = 8.3711e-06, No Iterations 5
nonePBiCGStab:  Solving for Uy, Initial residual = 0.0202616, Final residual = 1.37628e-05, No Iterations 5
nonePBiCGStab:  Solving for Uz, Initial residual = 0.038934, Final residual = 7.26032e-05, No Iterations 5
linear solve U 9
[OGL LOG] init_host_sparsity_pattern : 7 ms
[OGL LOG] matrix not stored update host matrix
[OGL LOG] update_host_mtx : 4 ms
[OGL LOG] matrix is not yet sorted, sorting host matrix
[OGL LOG] sort_host_mtx_sparsity_pattern : 5 ms
[OGL LOG] sort_host_mtx : 2 ms
[OGL LOG] init_preconditioner : 0 ms
[OGL LOG] solve : 42 ms
BJompGKOBiCGStab:  Solving for p, Initial residual = 0.0134644, Final residual = 9.83138e-05, No Iterations 47
linear solve p 64
time step continuity errors : sum local = 1.06111e-07, global = -1.53817e-20, cumulative = -3.4346e-20
[OGL LOG] init_host_sparsity_pattern : 7 ms
[OGL LOG] matrix not stored update host matrix
[OGL LOG] update_host_mtx : 3 ms
[OGL LOG] matrix is not yet sorted, sorting host matrix
[OGL LOG] sort_host_mtx_sparsity_pattern : 5 ms
[OGL LOG] sort_host_mtx : 2 ms
[OGL LOG] init_preconditioner : 0 ms
[OGL LOG] solve : 36 ms
BJompGKOBiCGStab:  Solving for p, Initial residual = 0.0102756, Final residual = 8.57654e-05, No Iterations 44
linear solve p 59
time step continuity errors : sum local = 8.50537e-08, global = 3.11314e-20, cumulative = -3.21468e-21
ExecutionTime = 53.44 s  ClockTime = 2 s

Time = 0.01

Courant Number mean: 0.042424 max: 0.255735
nonePBiCGStab:  Solving for Ux, Initial residual = 0.0108097, Final residual = 5.91492e-06, No Iterations 5
nonePBiCGStab:  Solving for Uy, Initial residual = 0.0173691, Final residual = 1.01057e-05, No Iterations 5
nonePBiCGStab:  Solving for Uz, Initial residual = 0.0338291, Final residual = 5.17805e-05, No Iterations 5
linear solve U 9
[OGL LOG] init_host_sparsity_pattern : 7 ms
[OGL LOG] matrix not stored update host matrix
[OGL LOG] update_host_mtx : 3 ms
[OGL LOG] matrix is not yet sorted, sorting host matrix
[OGL LOG] sort_host_mtx_sparsity_pattern : 5 ms
[OGL LOG] sort_host_mtx : 2 ms
[OGL LOG] init_preconditioner : 0 ms
[OGL LOG] solve : 36 ms
BJompGKOBiCGStab:  Solving for p, Initial residual = 0.0113035, Final residual = 9.00564e-05, No Iterations 44
linear solve p 59
time step continuity errors : sum local = 8.28254e-08, global = -4.49275e-20, cumulative = -4.81422e-20
[OGL LOG] init_host_sparsity_pattern : 7 ms
[OGL LOG] matrix not stored update host matrix
[OGL LOG] update_host_mtx : 3 ms
[OGL LOG] matrix is not yet sorted, sorting host matrix
[OGL LOG] sort_host_mtx_sparsity_pattern : 5 ms
[OGL LOG] sort_host_mtx : 2 ms
[OGL LOG] init_preconditioner : 0 ms
[OGL LOG] solve : 35 ms
BJompGKOBiCGStab:  Solving for p, Initial residual = 0.00858933, Final residual = 7.61545e-05, No Iterations 43
linear solve p 58
time step continuity errors : sum local = 7.51414e-08, global = 4.70087e-21, cumulative = -4.34414e-20
ExecutionTime = 56.92 s  ClockTime = 2 s

End

