/*---------------------------------------------------------------------------*\
  =========                 |
  \\      /  F ield         | OpenFOAM: The Open Source CFD Toolbox
   \\    /   O peration     | Website:  https://openfoam.org
    \\  /    A nd           | Version:  8
     \\/     M anipulation  |
\*---------------------------------------------------------------------------*/
Build  : 8-40a5a48f630f
Exec   : icoFoam
Date   : Jul 28 2021
Time   : 12:23:12
Host   : "uc2n463.localdomain"
PID    : 1725133
I/O    : uncollated
Case   : /pfs/data5/home/kit/scc/nq7776/code/OBR/lidDrivenCavity3D/Variation_mesh/25/Variation_matrix_solver/BiCGStab_BJ_OMP/base
nProcs : 1
sigFpe : Enabling floating point exception trapping (FOAM_SIGFPE).
fileModificationChecking : Monitoring run-time modified files using timeStampMaster (fileModificationSkew 10)
allowSystemOperations : Allowing user-supplied system call operations

// * * * * * * * * * * * * * * * * * * * * * * * * * * * * * * * * * * * * * //
Create time

Create mesh for time = 0

Reading transportProperties

Reading field p

Reading field U

Reading/calculating face flux field phi


Starting time loop

Time = 0.001

Courant Number mean: 0 max: 0
nonePBiCGStab:  Solving for Ux, Initial residual = 1, Final residual = 0.00310183, No Iterations 5
nonePBiCGStab:  Solving for Uy, Initial residual = 0, Final residual = 0, No Iterations 0
nonePBiCGStab:  Solving for Uz, Initial residual = 0, Final residual = 0, No Iterations 0
linear solve U 2
[OGL LOG] init_host_sparsity_pattern : 4 ms
[OGL LOG] matrix not stored update host matrix
[OGL LOG] update_host_mtx : 2 ms
[OGL LOG] matrix is not yet sorted, compute sorting idxs
[OGL LOG] compute_sort : 106 ms
[OGL LOG] matrix is not yet sorted, sorting host matrix
[OGL LOG] sort_host_mtx_sparsity_pattern : 3 ms
[OGL LOG] sort_host_mtx : 1 ms
[OGL LOG] init_preconditioner : 4 ms
[OGL LOG] solve : 352 ms
BJompGKOBiCGStab:  Solving for p, Initial residual = 1, Final residual = 3.01352e-05, No Iterations 136
linear solve p 479
time step continuity errors : sum local = 2.54247e-07, global = -1.95347e-20, cumulative = -1.95347e-20
[OGL LOG] init_host_sparsity_pattern : 4 ms
[OGL LOG] matrix not stored update host matrix
[OGL LOG] update_host_mtx : 2 ms
[OGL LOG] matrix is not yet sorted, sorting host matrix
[OGL LOG] sort_host_mtx_sparsity_pattern : 3 ms
[OGL LOG] sort_host_mtx : 1 ms
[OGL LOG] init_preconditioner : 0 ms
[OGL LOG] solve : 313 ms
BJompGKOBiCGStab:  Solving for p, Initial residual = 0.480957, Final residual = 6.74316e-05, No Iterations 121
linear solve p 326
time step continuity errors : sum local = 3.74953e-07, global = -1.78619e-22, cumulative = -1.97133e-20
ExecutionTime = 0.9 s  ClockTime = 1 s

Time = 0.002

Courant Number mean: 0.0119714 max: 0.106554
nonePBiCGStab:  Solving for Ux, Initial residual = 0.210865, Final residual = 0.000695713, No Iterations 5
nonePBiCGStab:  Solving for Uy, Initial residual = 0.284514, Final residual = 0.000650916, No Iterations 5
nonePBiCGStab:  Solving for Uz, Initial residual = 0.873645, Final residual = 0.00343594, No Iterations 5
linear solve U 5
[OGL LOG] init_host_sparsity_pattern : 4 ms
[OGL LOG] matrix not stored update host matrix
[OGL LOG] update_host_mtx : 2 ms
[OGL LOG] matrix is not yet sorted, sorting host matrix
[OGL LOG] sort_host_mtx_sparsity_pattern : 3 ms
[OGL LOG] sort_host_mtx : 1 ms
[OGL LOG] init_preconditioner : 0 ms
[OGL LOG] solve : 279 ms
BJompGKOBiCGStab:  Solving for p, Initial residual = 0.286144, Final residual = 9.21359e-05, No Iterations 105
linear solve p 292
time step continuity errors : sum local = 1.93899e-07, global = 2.16061e-20, cumulative = 1.89274e-21
[OGL LOG] init_host_sparsity_pattern : 4 ms
[OGL LOG] matrix not stored update host matrix
[OGL LOG] update_host_mtx : 2 ms
[OGL LOG] matrix is not yet sorted, sorting host matrix
[OGL LOG] sort_host_mtx_sparsity_pattern : 3 ms
[OGL LOG] sort_host_mtx : 1 ms
[OGL LOG] init_preconditioner : 0 ms
[OGL LOG] solve : 265 ms
BJompGKOBiCGStab:  Solving for p, Initial residual = 0.189413, Final residual = 8.9538e-05, No Iterations 100
linear solve p 279
time step continuity errors : sum local = 2.91615e-07, global = -3.79304e-21, cumulative = -1.90029e-21
ExecutionTime = 1.48 s  ClockTime = 2 s

Time = 0.003

Courant Number mean: 0.0188465 max: 0.153564
nonePBiCGStab:  Solving for Ux, Initial residual = 0.089997, Final residual = 0.00029226, No Iterations 5
nonePBiCGStab:  Solving for Uy, Initial residual = 0.124907, Final residual = 0.000201086, No Iterations 5
nonePBiCGStab:  Solving for Uz, Initial residual = 0.276604, Final residual = 0.00101651, No Iterations 5
linear solve U 5
[OGL LOG] init_host_sparsity_pattern : 4 ms
[OGL LOG] matrix not stored update host matrix
[OGL LOG] update_host_mtx : 2 ms
[OGL LOG] matrix is not yet sorted, sorting host matrix
[OGL LOG] sort_host_mtx_sparsity_pattern : 3 ms
[OGL LOG] sort_host_mtx : 1 ms
[OGL LOG] init_preconditioner : 0 ms
[OGL LOG] solve : 269 ms
BJompGKOBiCGStab:  Solving for p, Initial residual = 0.103182, Final residual = 8.67386e-05, No Iterations 103
linear solve p 282
time step continuity errors : sum local = 3.19925e-07, global = -2.07209e-22, cumulative = -2.1075e-21
[OGL LOG] init_host_sparsity_pattern : 4 ms
[OGL LOG] matrix not stored update host matrix
[OGL LOG] update_host_mtx : 2 ms
[OGL LOG] matrix is not yet sorted, sorting host matrix
[OGL LOG] sort_host_mtx_sparsity_pattern : 3 ms
[OGL LOG] sort_host_mtx : 1 ms
[OGL LOG] init_preconditioner : 0 ms
[OGL LOG] solve : 290 ms
BJompGKOBiCGStab:  Solving for p, Initial residual = 0.0703746, Final residual = 7.82325e-05, No Iterations 112
linear solve p 303
time step continuity errors : sum local = 4.29866e-07, global = -5.15623e-21, cumulative = -7.26373e-21
ExecutionTime = 2.08 s  ClockTime = 2 s

Time = 0.004

Courant Number mean: 0.0233146 max: 0.175119
nonePBiCGStab:  Solving for Ux, Initial residual = 0.0519884, Final residual = 0.000102903, No Iterations 5
nonePBiCGStab:  Solving for Uy, Initial residual = 0.0746129, Final residual = 6.72253e-05, No Iterations 5
nonePBiCGStab:  Solving for Uz, Initial residual = 0.14572, Final residual = 0.000460363, No Iterations 5
linear solve U 5
[OGL LOG] init_host_sparsity_pattern : 4 ms
[OGL LOG] matrix not stored update host matrix
[OGL LOG] update_host_mtx : 2 ms
[OGL LOG] matrix is not yet sorted, sorting host matrix
[OGL LOG] sort_host_mtx_sparsity_pattern : 3 ms
[OGL LOG] sort_host_mtx : 1 ms
[OGL LOG] init_preconditioner : 0 ms
[OGL LOG] solve : 279 ms
BJompGKOBiCGStab:  Solving for p, Initial residual = 0.0562316, Final residual = 8.48832e-05, No Iterations 107
linear solve p 292
time step continuity errors : sum local = 2.76604e-07, global = -4.38013e-21, cumulative = -1.16439e-20
[OGL LOG] init_host_sparsity_pattern : 4 ms
[OGL LOG] matrix not stored update host matrix
[OGL LOG] update_host_mtx : 2 ms
[OGL LOG] matrix is not yet sorted, sorting host matrix
[OGL LOG] sort_host_mtx_sparsity_pattern : 3 ms
[OGL LOG] sort_host_mtx : 1 ms
[OGL LOG] init_preconditioner : 0 ms
[OGL LOG] solve : 274 ms
BJompGKOBiCGStab:  Solving for p, Initial residual = 0.0379458, Final residual = 9.94808e-05, No Iterations 106
linear solve p 287
time step continuity errors : sum local = 2.39688e-07, global = 1.92278e-20, cumulative = 7.58396e-21
ExecutionTime = 2.68 s  ClockTime = 3 s

Time = 0.005

Courant Number mean: 0.0264937 max: 0.186504
nonePBiCGStab:  Solving for Ux, Initial residual = 0.0351112, Final residual = 4.29508e-05, No Iterations 5
nonePBiCGStab:  Solving for Uy, Initial residual = 0.0509671, Final residual = 3.00992e-05, No Iterations 5
nonePBiCGStab:  Solving for Uz, Initial residual = 0.0987948, Final residual = 0.00015591, No Iterations 5
linear solve U 5
[OGL LOG] init_host_sparsity_pattern : 4 ms
[OGL LOG] matrix not stored update host matrix
[OGL LOG] update_host_mtx : 2 ms
[OGL LOG] matrix is not yet sorted, sorting host matrix
[OGL LOG] sort_host_mtx_sparsity_pattern : 3 ms
[OGL LOG] sort_host_mtx : 1 ms
[OGL LOG] init_preconditioner : 0 ms
[OGL LOG] solve : 263 ms
BJompGKOBiCGStab:  Solving for p, Initial residual = 0.0355763, Final residual = 7.21082e-05, No Iterations 101
linear solve p 275
time step continuity errors : sum local = 2.5394e-07, global = -1.28068e-21, cumulative = 6.30327e-21
[OGL LOG] init_host_sparsity_pattern : 4 ms
[OGL LOG] matrix not stored update host matrix
[OGL LOG] update_host_mtx : 2 ms
[OGL LOG] matrix is not yet sorted, sorting host matrix
[OGL LOG] sort_host_mtx_sparsity_pattern : 3 ms
[OGL LOG] sort_host_mtx : 1 ms
[OGL LOG] init_preconditioner : 0 ms
[OGL LOG] solve : 264 ms
BJompGKOBiCGStab:  Solving for p, Initial residual = 0.0237575, Final residual = 9.91323e-05, No Iterations 102
linear solve p 277
time step continuity errors : sum local = 2.30255e-07, global = 3.4084e-21, cumulative = 9.71167e-21
ExecutionTime = 3.24 s  ClockTime = 3 s

Time = 0.006

Courant Number mean: 0.0288952 max: 0.193336
nonePBiCGStab:  Solving for Ux, Initial residual = 0.0259274, Final residual = 1.91297e-05, No Iterations 5
nonePBiCGStab:  Solving for Uy, Initial residual = 0.0381479, Final residual = 2.09721e-05, No Iterations 5
nonePBiCGStab:  Solving for Uz, Initial residual = 0.0772322, Final residual = 0.000158299, No Iterations 5
linear solve U 5
[OGL LOG] init_host_sparsity_pattern : 4 ms
[OGL LOG] matrix not stored update host matrix
[OGL LOG] update_host_mtx : 2 ms
[OGL LOG] matrix is not yet sorted, sorting host matrix
[OGL LOG] sort_host_mtx_sparsity_pattern : 3 ms
[OGL LOG] sort_host_mtx : 1 ms
[OGL LOG] init_preconditioner : 0 ms
[OGL LOG] solve : 252 ms
BJompGKOBiCGStab:  Solving for p, Initial residual = 0.0250472, Final residual = 9.67005e-05, No Iterations 97
linear solve p 264
time step continuity errors : sum local = 2.8162e-07, global = 6.07316e-21, cumulative = 1.57848e-20
[OGL LOG] init_host_sparsity_pattern : 4 ms
[OGL LOG] matrix not stored update host matrix
[OGL LOG] update_host_mtx : 2 ms
[OGL LOG] matrix is not yet sorted, sorting host matrix
[OGL LOG] sort_host_mtx_sparsity_pattern : 3 ms
[OGL LOG] sort_host_mtx : 1 ms
[OGL LOG] init_preconditioner : 0 ms
[OGL LOG] solve : 288 ms
BJompGKOBiCGStab:  Solving for p, Initial residual = 0.0169763, Final residual = 7.36608e-05, No Iterations 111
linear solve p 300
time step continuity errors : sum local = 3.39501e-07, global = 5.89459e-21, cumulative = 2.16794e-20
ExecutionTime = 3.81 s  ClockTime = 4 s

Time = 0.007

Courant Number mean: 0.0308307 max: 0.197891
nonePBiCGStab:  Solving for Ux, Initial residual = 0.020345, Final residual = 1.4767e-05, No Iterations 5
nonePBiCGStab:  Solving for Uy, Initial residual = 0.0301998, Final residual = 1.80743e-05, No Iterations 5
nonePBiCGStab:  Solving for Uz, Initial residual = 0.063678, Final residual = 0.000152299, No Iterations 5
linear solve U 5
[OGL LOG] init_host_sparsity_pattern : 4 ms
[OGL LOG] matrix not stored update host matrix
[OGL LOG] update_host_mtx : 2 ms
[OGL LOG] matrix is not yet sorted, sorting host matrix
[OGL LOG] sort_host_mtx_sparsity_pattern : 3 ms
[OGL LOG] sort_host_mtx : 1 ms
[OGL LOG] init_preconditioner : 0 ms
[OGL LOG] solve : 280 ms
BJompGKOBiCGStab:  Solving for p, Initial residual = 0.0195323, Final residual = 9.79051e-05, No Iterations 108
linear solve p 292
time step continuity errors : sum local = 1.80631e-07, global = 4.83797e-21, cumulative = 2.65174e-20
[OGL LOG] init_host_sparsity_pattern : 4 ms
[OGL LOG] matrix not stored update host matrix
[OGL LOG] update_host_mtx : 2 ms
[OGL LOG] matrix is not yet sorted, sorting host matrix
[OGL LOG] sort_host_mtx_sparsity_pattern : 3 ms
[OGL LOG] sort_host_mtx : 1 ms
[OGL LOG] init_preconditioner : 0 ms
[OGL LOG] solve : 241 ms
BJompGKOBiCGStab:  Solving for p, Initial residual = 0.0133343, Final residual = 9.85028e-05, No Iterations 93
linear solve p 254
time step continuity errors : sum local = 1.87633e-07, global = 1.00176e-20, cumulative = 3.6535e-20
ExecutionTime = 4.38 s  ClockTime = 5 s

Time = 0.008

Courant Number mean: 0.0324771 max: 0.201171
nonePBiCGStab:  Solving for Ux, Initial residual = 0.0165884, Final residual = 1.09034e-05, No Iterations 5
nonePBiCGStab:  Solving for Uy, Initial residual = 0.0245741, Final residual = 1.55005e-05, No Iterations 5
nonePBiCGStab:  Solving for Uz, Initial residual = 0.0498875, Final residual = 0.000109411, No Iterations 5
linear solve U 5
[OGL LOG] init_host_sparsity_pattern : 4 ms
[OGL LOG] matrix not stored update host matrix
[OGL LOG] update_host_mtx : 2 ms
[OGL LOG] matrix is not yet sorted, sorting host matrix
[OGL LOG] sort_host_mtx_sparsity_pattern : 3 ms
[OGL LOG] sort_host_mtx : 1 ms
[OGL LOG] init_preconditioner : 0 ms
[OGL LOG] solve : 241 ms
BJompGKOBiCGStab:  Solving for p, Initial residual = 0.015019, Final residual = 8.95579e-05, No Iterations 93
linear solve p 254
time step continuity errors : sum local = 1.47768e-07, global = -1.34253e-20, cumulative = 2.31096e-20
[OGL LOG] init_host_sparsity_pattern : 4 ms
[OGL LOG] matrix not stored update host matrix
[OGL LOG] update_host_mtx : 2 ms
[OGL LOG] matrix is not yet sorted, sorting host matrix
[OGL LOG] sort_host_mtx_sparsity_pattern : 3 ms
[OGL LOG] sort_host_mtx : 1 ms
[OGL LOG] init_preconditioner : 0 ms
[OGL LOG] solve : 102 ms
BJompGKOBiCGStab:  Solving for p, Initial residual = 0.0102411, Final residual = 9.60668e-05, No Iterations 39
linear solve p 115
time step continuity errors : sum local = 1.13852e-07, global = -8.58107e-21, cumulative = 1.45286e-20
ExecutionTime = 4.75 s  ClockTime = 5 s

Time = 0.009

Courant Number mean: 0.0338804 max: 0.203668
nonePBiCGStab:  Solving for Ux, Initial residual = 0.0137886, Final residual = 5.9426e-06, No Iterations 5
nonePBiCGStab:  Solving for Uy, Initial residual = 0.0207596, Final residual = 9.29266e-06, No Iterations 5
nonePBiCGStab:  Solving for Uz, Initial residual = 0.0427244, Final residual = 7.65202e-05, No Iterations 5
linear solve U 5
[OGL LOG] init_host_sparsity_pattern : 4 ms
[OGL LOG] matrix not stored update host matrix
[OGL LOG] update_host_mtx : 2 ms
[OGL LOG] matrix is not yet sorted, sorting host matrix
[OGL LOG] sort_host_mtx_sparsity_pattern : 3 ms
[OGL LOG] sort_host_mtx : 1 ms
[OGL LOG] init_preconditioner : 0 ms
[OGL LOG] solve : 107 ms
BJompGKOBiCGStab:  Solving for p, Initial residual = 0.0127108, Final residual = 9.38615e-05, No Iterations 41
linear solve p 120
time step continuity errors : sum local = 1.49102e-07, global = 4.57844e-21, cumulative = 1.9107e-20
[OGL LOG] init_host_sparsity_pattern : 4 ms
[OGL LOG] matrix not stored update host matrix
[OGL LOG] update_host_mtx : 2 ms
[OGL LOG] matrix is not yet sorted, sorting host matrix
[OGL LOG] sort_host_mtx_sparsity_pattern : 3 ms
[OGL LOG] sort_host_mtx : 1 ms
[OGL LOG] init_preconditioner : 0 ms
[OGL LOG] solve : 98 ms
BJompGKOBiCGStab:  Solving for p, Initial residual = 0.00868248, Final residual = 8.82658e-05, No Iterations 38
linear solve p 111
time step continuity errors : sum local = 1.21561e-07, global = 3.75176e-20, cumulative = 5.66246e-20
ExecutionTime = 4.99 s  ClockTime = 5 s

Time = 0.01

Courant Number mean: 0.0350914 max: 0.205643
nonePBiCGStab:  Solving for Ux, Initial residual = 0.0117305, Final residual = 2.841e-06, No Iterations 5
nonePBiCGStab:  Solving for Uy, Initial residual = 0.0177071, Final residual = 3.93775e-06, No Iterations 5
nonePBiCGStab:  Solving for Uz, Initial residual = 0.0356307, Final residual = 2.79608e-05, No Iterations 5
linear solve U 5
[OGL LOG] init_host_sparsity_pattern : 4 ms
[OGL LOG] matrix not stored update host matrix
[OGL LOG] update_host_mtx : 2 ms
[OGL LOG] matrix is not yet sorted, sorting host matrix
[OGL LOG] sort_host_mtx_sparsity_pattern : 3 ms
[OGL LOG] sort_host_mtx : 1 ms
[OGL LOG] init_preconditioner : 0 ms
[OGL LOG] solve : 106 ms
BJompGKOBiCGStab:  Solving for p, Initial residual = 0.0105276, Final residual = 8.75743e-05, No Iterations 41
linear solve p 118
time step continuity errors : sum local = 1.09761e-07, global = -6.98409e-21, cumulative = 4.96405e-20
[OGL LOG] init_host_sparsity_pattern : 4 ms
[OGL LOG] matrix not stored update host matrix
[OGL LOG] update_host_mtx : 2 ms
[OGL LOG] matrix is not yet sorted, sorting host matrix
[OGL LOG] sort_host_mtx_sparsity_pattern : 3 ms
[OGL LOG] sort_host_mtx : 1 ms
[OGL LOG] init_preconditioner : 0 ms
[OGL LOG] solve : 99 ms
BJompGKOBiCGStab:  Solving for p, Initial residual = 0.0072465, Final residual = 8.28112e-05, No Iterations 38
linear solve p 112
time step continuity errors : sum local = 1.28578e-07, global = -7.2916e-21, cumulative = 4.23489e-20
ExecutionTime = 5.24 s  ClockTime = 5 s

End

