/*---------------------------------------------------------------------------*\
  =========                 |
  \\      /  F ield         | OpenFOAM: The Open Source CFD Toolbox
   \\    /   O peration     | Website:  https://openfoam.org
    \\  /    A nd           | Version:  8
     \\/     M anipulation  |
\*---------------------------------------------------------------------------*/
Build  : 8-ef60d22ea792
Exec   : icoFoam
Date   : Jul 29 2021
Time   : 03:10:32
Host   : "uc2n489.localdomain"
PID    : 3418889
I/O    : uncollated
Case   : /pfs/data5/home/kit/scc/nq7776/code/OBR/lidDrivenCavity3D/Variation_mesh/95/Variation_matrix_solver/BiCGStab_BJ_CUDA/base
nProcs : 1
sigFpe : Enabling floating point exception trapping (FOAM_SIGFPE).
fileModificationChecking : Monitoring run-time modified files using timeStampMaster (fileModificationSkew 10)
allowSystemOperations : Allowing user-supplied system call operations

// * * * * * * * * * * * * * * * * * * * * * * * * * * * * * * * * * * * * * //
Create time

Create mesh for time = 0

Reading transportProperties

Reading field p

Reading field U

Reading/calculating face flux field phi


Starting time loop

Time = 0.001

Courant Number mean: 0 max: 0
DILUPBiCGStab:  Solving for Ux, Initial residual = 1, Final residual = 0.00597808, No Iterations 5
DILUPBiCGStab:  Solving for Uy:  solution singularity
DILUPBiCGStab:  Solving for Uz:  solution singularity
linear solve U 432746
[OGL LOG] init_host_sparsity_pattern : 256 ms
[OGL LOG] matrix not stored update host matrix
[OGL LOG] update_host_mtx : 127 ms
[OGL LOG] matrix is not yet sorted, compute sorting idxs
[OGL LOG] compute_sort : 7726 ms
[OGL LOG] matrix is not yet sorted, sorting host matrix
[OGL LOG] sort_host_mtx_sparsity_pattern : 173 ms
[OGL LOG] sort_host_mtx : 105 ms
[OGL LOG] init_preconditioner : 111 ms
[OGL LOG] solve : 1635 ms
BJcudaGKOBiCGStab:  Solving for p, Initial residual = 1, Final residual = 8.63961e-05, No Iterations 490
linear solve p 10980326
time step continuity errors : sum local = 0.000987401, global = 6.68681e-19, cumulative = 6.68681e-19
[OGL LOG] init_host_sparsity_pattern : 257 ms
[OGL LOG] matrix not stored update host matrix
[OGL LOG] update_host_mtx : 126 ms
[OGL LOG] matrix is not yet sorted, sorting host matrix
[OGL LOG] sort_host_mtx_sparsity_pattern : 183 ms
[OGL LOG] sort_host_mtx : 94 ms
[OGL LOG] init_preconditioner : 0 ms
[OGL LOG] solve : 1473 ms
BJcudaGKOBiCGStab:  Solving for p, Initial residual = 0.91866, Final residual = 4.7891e-05, No Iterations 439
linear solve p 2192497
time step continuity errors : sum local = 0.00820495, global = 2.90467e-17, cumulative = 2.97154e-17
ExecutionTime = 17.28 s  ClockTime = 17 s

Time = 0.002

Courant Number mean: 0.0575508 max: 0.924423
DILUPBiCGStab:  Solving for Ux, Initial residual = 0.140548, Final residual = 0.00256502, No Iterations 5
DILUPBiCGStab:  Solving for Uy, Initial residual = 0.420455, Final residual = 0.00875648, No Iterations 5
DILUPBiCGStab:  Solving for Uz, Initial residual = 0.626946, Final residual = 0.0209465, No Iterations 5
linear solve U 870882
[OGL LOG] init_host_sparsity_pattern : 245 ms
[OGL LOG] matrix not stored update host matrix
[OGL LOG] update_host_mtx : 127 ms
[OGL LOG] matrix is not yet sorted, sorting host matrix
[OGL LOG] sort_host_mtx_sparsity_pattern : 178 ms
[OGL LOG] sort_host_mtx : 95 ms
[OGL LOG] init_preconditioner : 0 ms
[OGL LOG] solve : 1355 ms
BJcudaGKOBiCGStab:  Solving for p, Initial residual = 0.98824, Final residual = 9.81856e-05, No Iterations 407
linear solve p 2058927
time step continuity errors : sum local = 0.0028593, global = -2.65188e-18, cumulative = 2.70635e-17
[OGL LOG] init_host_sparsity_pattern : 247 ms
[OGL LOG] matrix not stored update host matrix
[OGL LOG] update_host_mtx : 128 ms
[OGL LOG] matrix is not yet sorted, sorting host matrix
[OGL LOG] sort_host_mtx_sparsity_pattern : 177 ms
[OGL LOG] sort_host_mtx : 94 ms
[OGL LOG] init_preconditioner : 0 ms
[OGL LOG] solve : 661 ms
BJcudaGKOBiCGStab:  Solving for p, Initial residual = 0.824876, Final residual = 8.99825e-05, No Iterations 197
linear solve p 1366992
time step continuity errors : sum local = 5.57389e-05, global = -3.01912e-20, cumulative = 2.70333e-17
ExecutionTime = 22.12 s  ClockTime = 22 s

Time = 0.003

Courant Number mean: 0.116395 max: 1.85776
DILUPBiCGStab:  Solving for Ux, Initial residual = 0.153247, Final residual = 0.00232104, No Iterations 5
DILUPBiCGStab:  Solving for Uy, Initial residual = 0.54222, Final residual = 0.00911452, No Iterations 5
DILUPBiCGStab:  Solving for Uz, Initial residual = 0.809335, Final residual = 0.0158775, No Iterations 5
linear solve U 854824
[OGL LOG] init_host_sparsity_pattern : 249 ms
[OGL LOG] matrix not stored update host matrix
[OGL LOG] update_host_mtx : 127 ms
[OGL LOG] matrix is not yet sorted, sorting host matrix
[OGL LOG] sort_host_mtx_sparsity_pattern : 182 ms
[OGL LOG] sort_host_mtx : 94 ms
[OGL LOG] init_preconditioner : 0 ms
[OGL LOG] solve : 1499 ms
BJcudaGKOBiCGStab:  Solving for p, Initial residual = 0.978194, Final residual = 7.20078e-05, No Iterations 452
linear solve p 2209476
time step continuity errors : sum local = 0.00813903, global = -8.56484e-18, cumulative = 1.84685e-17
[OGL LOG] init_host_sparsity_pattern : 250 ms
[OGL LOG] matrix not stored update host matrix
[OGL LOG] update_host_mtx : 130 ms
[OGL LOG] matrix is not yet sorted, sorting host matrix
[OGL LOG] sort_host_mtx_sparsity_pattern : 177 ms
[OGL LOG] sort_host_mtx : 94 ms
[OGL LOG] init_preconditioner : 0 ms
[OGL LOG] solve : 1549 ms
BJcudaGKOBiCGStab:  Solving for p, Initial residual = 0.831789, Final residual = 9.84679e-05, No Iterations 470
linear solve p 2258898
time step continuity errors : sum local = 6.31661e-06, global = 1.53669e-20, cumulative = 1.84839e-17
ExecutionTime = 27.98 s  ClockTime = 28 s

Time = 0.004

Courant Number mean: 0.11644 max: 1.47387
DILUPBiCGStab:  Solving for Ux, Initial residual = 0.139606, Final residual = 0.00222679, No Iterations 5
DILUPBiCGStab:  Solving for Uy, Initial residual = 0.490373, Final residual = 0.00904635, No Iterations 5
DILUPBiCGStab:  Solving for Uz, Initial residual = 0.846043, Final residual = 0.0174379, No Iterations 5
linear solve U 867387
[OGL LOG] init_host_sparsity_pattern : 250 ms
[OGL LOG] matrix not stored update host matrix
[OGL LOG] update_host_mtx : 127 ms
[OGL LOG] matrix is not yet sorted, sorting host matrix
[OGL LOG] sort_host_mtx_sparsity_pattern : 178 ms
[OGL LOG] sort_host_mtx : 94 ms
[OGL LOG] init_preconditioner : 0 ms
[OGL LOG] solve : 1461 ms
BJcudaGKOBiCGStab:  Solving for p, Initial residual = 0.980861, Final residual = 8.87028e-05, No Iterations 442
linear solve p 2170414
time step continuity errors : sum local = 0.0182473, global = 1.1836e-17, cumulative = 3.03199e-17
[OGL LOG] init_host_sparsity_pattern : 248 ms
[OGL LOG] matrix not stored update host matrix
[OGL LOG] update_host_mtx : 127 ms
[OGL LOG] matrix is not yet sorted, sorting host matrix
[OGL LOG] sort_host_mtx_sparsity_pattern : 177 ms
[OGL LOG] sort_host_mtx : 94 ms
[OGL LOG] init_preconditioner : 0 ms
[OGL LOG] solve : 1470 ms
BJcudaGKOBiCGStab:  Solving for p, Initial residual = 0.972241, Final residual = 6.64164e-05, No Iterations 444
linear solve p 2175533
time step continuity errors : sum local = 0.0398272, global = 3.19945e-17, cumulative = 6.23144e-17
ExecutionTime = 33.73 s  ClockTime = 34 s

Time = 0.005

Courant Number mean: 0.173395 max: 2.91869
DILUPBiCGStab:  Solving for Ux, Initial residual = 0.175856, Final residual = 0.00223444, No Iterations 5
DILUPBiCGStab:  Solving for Uy, Initial residual = 0.526718, Final residual = 0.00901678, No Iterations 5
DILUPBiCGStab:  Solving for Uz, Initial residual = 0.629497, Final residual = 0.0150258, No Iterations 5
linear solve U 863487
[OGL LOG] init_host_sparsity_pattern : 244 ms
[OGL LOG] matrix not stored update host matrix
[OGL LOG] update_host_mtx : 128 ms
[OGL LOG] matrix is not yet sorted, sorting host matrix
[OGL LOG] sort_host_mtx_sparsity_pattern : 183 ms
[OGL LOG] sort_host_mtx : 94 ms
[OGL LOG] init_preconditioner : 0 ms
[OGL LOG] solve : 1406 ms
BJcudaGKOBiCGStab:  Solving for p, Initial residual = 0.975931, Final residual = 9.81158e-05, No Iterations 425
linear solve p 2114787
time step continuity errors : sum local = 0.0186931, global = 6.1165e-18, cumulative = 6.84309e-17
[OGL LOG] init_host_sparsity_pattern : 249 ms
[OGL LOG] matrix not stored update host matrix
[OGL LOG] update_host_mtx : 127 ms
[OGL LOG] matrix is not yet sorted, sorting host matrix
[OGL LOG] sort_host_mtx_sparsity_pattern : 181 ms
[OGL LOG] sort_host_mtx : 94 ms
[OGL LOG] init_preconditioner : 0 ms
[OGL LOG] solve : 1385 ms
BJcudaGKOBiCGStab:  Solving for p, Initial residual = 0.810881, Final residual = 9.65126e-05, No Iterations 411
linear solve p 2095551
time step continuity errors : sum local = 0.0513539, global = 8.36816e-17, cumulative = 1.52112e-16
ExecutionTime = 39.32 s  ClockTime = 40 s

Time = 0.006

Courant Number mean: 0.261565 max: 6.43325
DILUPBiCGStab:  Solving for Ux, Initial residual = 0.354774, Final residual = 0.00680196, No Iterations 5
DILUPBiCGStab:  Solving for Uy, Initial residual = 0.738685, Final residual = 0.0174998, No Iterations 5
DILUPBiCGStab:  Solving for Uz, Initial residual = 0.817545, Final residual = 0.0218583, No Iterations 5
linear solve U 879348
[OGL LOG] init_host_sparsity_pattern : 244 ms
[OGL LOG] matrix not stored update host matrix
[OGL LOG] update_host_mtx : 127 ms
[OGL LOG] matrix is not yet sorted, sorting host matrix
[OGL LOG] sort_host_mtx_sparsity_pattern : 179 ms
[OGL LOG] sort_host_mtx : 94 ms
[OGL LOG] init_preconditioner : 0 ms
[OGL LOG] solve : 1390 ms
BJcudaGKOBiCGStab:  Solving for p, Initial residual = 0.989921, Final residual = 8.97311e-05, No Iterations 416
linear solve p 2093008
time step continuity errors : sum local = 7.33335e-05, global = 1.40365e-19, cumulative = 1.52253e-16
[OGL LOG] init_host_sparsity_pattern : 248 ms
[OGL LOG] matrix not stored update host matrix
[OGL LOG] update_host_mtx : 127 ms
[OGL LOG] matrix is not yet sorted, sorting host matrix
[OGL LOG] sort_host_mtx_sparsity_pattern : 178 ms
[OGL LOG] sort_host_mtx : 95 ms
[OGL LOG] init_preconditioner : 0 ms
[OGL LOG] solve : 1461 ms
BJcudaGKOBiCGStab:  Solving for p, Initial residual = 0.873705, Final residual = 8.52864e-05, No Iterations 437
linear solve p 2170046
time step continuity errors : sum local = 2.0874, global = 1.52148e-15, cumulative = 1.67373e-15
ExecutionTime = 44.98 s  ClockTime = 45 s

Time = 0.007

Courant Number mean: 1.58141 max: 149.593
DILUPBiCGStab:  Solving for Ux, Initial residual = 0.716007, Final residual = 30.3556, No Iterations 5
DILUPBiCGStab:  Solving for Uy, Initial residual = 0.818144, Final residual = 27.7943, No Iterations 5
DILUPBiCGStab:  Solving for Uz, Initial residual = 0.648597, Final residual = 3.28509, No Iterations 5
linear solve U 863005
[OGL LOG] init_host_sparsity_pattern : 243 ms
[OGL LOG] matrix not stored update host matrix
[OGL LOG] update_host_mtx : 127 ms
[OGL LOG] matrix is not yet sorted, sorting host matrix
[OGL LOG] sort_host_mtx_sparsity_pattern : 177 ms
[OGL LOG] sort_host_mtx : 94 ms
[OGL LOG] init_preconditioner : 0 ms
[OGL LOG] solve : 9887 ms
BJcudaGKOBiCGStab:  Solving for p, Initial residual = 0.872099, Final residual = 0.00154519, No Iterations 3000
linear solve p 10587341
time step continuity errors : sum local = 0.110258, global = -1.47216e-15, cumulative = 2.01572e-16
[OGL LOG] init_host_sparsity_pattern : 253 ms
[OGL LOG] matrix not stored update host matrix
[OGL LOG] update_host_mtx : 128 ms
[OGL LOG] matrix is not yet sorted, sorting host matrix
[OGL LOG] sort_host_mtx_sparsity_pattern : 184 ms
[OGL LOG] sort_host_mtx : 94 ms
[OGL LOG] init_preconditioner : 0 ms
[OGL LOG] solve : 9886 ms
BJcudaGKOBiCGStab:  Solving for p, Initial residual = 0.886539, Final residual = 0.00607894, No Iterations 3000
linear solve p 10609255
time step continuity errors : sum local = 1.41138, global = -1.2833e-15, cumulative = -1.08173e-15
ExecutionTime = 67.58 s  ClockTime = 68 s

Time = 0.008

Courant Number mean: 2515.1 max: 1.24205e+07
DILUPBiCGStab:  Solving for Ux, Initial residual = 0.99999, Final residual = 41.0537, No Iterations 5
DILUPBiCGStab:  Solving for Uy, Initial residual = 0.999996, Final residual = 178.631, No Iterations 5
DILUPBiCGStab:  Solving for Uz, Initial residual = 0.999918, Final residual = 156.842, No Iterations 5
linear solve U 864416
[OGL LOG] init_host_sparsity_pattern : 247 ms
[OGL LOG] matrix not stored update host matrix
[OGL LOG] update_host_mtx : 129 ms
[OGL LOG] matrix is not yet sorted, sorting host matrix
[OGL LOG] sort_host_mtx_sparsity_pattern : 184 ms
[OGL LOG] sort_host_mtx : 95 ms
[OGL LOG] init_preconditioner : 0 ms
[OGL LOG] solve : 1458 ms
BJcudaGKOBiCGStab:  Solving for p, Initial residual = 1, Final residual = 9.79833e-05, No Iterations 434
linear solve p 2172308
time step continuity errors : sum local = 2.28785e+08, global = 3.67096e-07, cumulative = 3.67096e-07
[OGL LOG] init_host_sparsity_pattern : 248 ms
[OGL LOG] matrix not stored update host matrix
[OGL LOG] update_host_mtx : 127 ms
[OGL LOG] matrix is not yet sorted, sorting host matrix
[OGL LOG] sort_host_mtx_sparsity_pattern : 178 ms
[OGL LOG] sort_host_mtx : 94 ms
[OGL LOG] init_preconditioner : 0 ms
[OGL LOG] solve : 446 ms
BJcudaGKOBiCGStab:  Solving for p, Initial residual = 0.999815, Final residual = 9.52191e-05, No Iterations 130
linear solve p 1150329
time step continuity errors : sum local = 1.79181e+11, global = -0.0003938, cumulative = -0.000393433
ExecutionTime = 72.3 s  ClockTime = 73 s

Time = 0.009

Courant Number mean: 7.45237e+13 max: 1.99483e+18
DILUPBiCGStab:  Solving for Ux, Initial residual = 1, Final residual = 296.971, No Iterations 5
DILUPBiCGStab:  Solving for Uy, Initial residual = 1, Final residual = 2740.5, No Iterations 5
DILUPBiCGStab:  Solving for Uz, Initial residual = 1, Final residual = 286.856, No Iterations 5
linear solve U 867043
[OGL LOG] init_host_sparsity_pattern : 244 ms
[OGL LOG] matrix not stored update host matrix
[OGL LOG] update_host_mtx : 127 ms
[OGL LOG] matrix is not yet sorted, sorting host matrix
[OGL LOG] sort_host_mtx_sparsity_pattern : 177 ms
[OGL LOG] sort_host_mtx : 94 ms
[OGL LOG] init_preconditioner : 0 ms
[OGL LOG] solve : 10062 ms
BJcudaGKOBiCGStab:  Solving for p, Initial residual = 1, Final residual = 76.8133, No Iterations 3000
linear solve p 10768177
time step continuity errors : sum local = 1.8337e+27, global = -1.01595e+12, cumulative = -1.01595e+12
[OGL LOG] init_host_sparsity_pattern : 247 ms
[OGL LOG] matrix not stored update host matrix
[OGL LOG] update_host_mtx : 127 ms
[OGL LOG] matrix is not yet sorted, sorting host matrix
[OGL LOG] sort_host_mtx_sparsity_pattern : 183 ms
[OGL LOG] sort_host_mtx : 94 ms
[OGL LOG] init_preconditioner : 0 ms
[OGL LOG] solve : 10027 ms
BJcudaGKOBiCGStab:  Solving for p, Initial residual = 0.999998, Final residual = 4.00487, No Iterations 3000
linear solve p 10736184
time step continuity errors : sum local = 3.19877e+33, global = -1.81058e+17, cumulative = -1.81059e+17
ExecutionTime = 95.19 s  ClockTime = 96 s

Time = 0.01

Courant Number mean: 3.30456e+33 max: 9.04477e+37
DILUPBiCGStab:  Solving for Ux, Initial residual = 0.999994, Final residual = 168.181, No Iterations 5
DILUPBiCGStab:  Solving for Uy, Initial residual = 0.999994, Final residual = 64.1789, No Iterations 5
DILUPBiCGStab:  Solving for Uz, Initial residual = 0.999988, Final residual = 420.97, No Iterations 5
linear solve U 868349
[OGL LOG] init_host_sparsity_pattern : 244 ms
[OGL LOG] matrix not stored update host matrix
[OGL LOG] update_host_mtx : 126 ms
[OGL LOG] matrix is not yet sorted, sorting host matrix
[OGL LOG] sort_host_mtx_sparsity_pattern : 177 ms
[OGL LOG] sort_host_mtx : 94 ms
[OGL LOG] init_preconditioner : 0 ms
[OGL LOG] solve : 9974 ms
BJcudaGKOBiCGStab:  Solving for p, Initial residual = 1, Final residual = 15.8888, No Iterations 3000
linear solve p 10678559
time step continuity errors : sum local = 5.54713e+55, global = 7.35059e+39, cumulative = 7.35059e+39
[OGL LOG] init_host_sparsity_pattern : 248 ms
[OGL LOG] matrix not stored update host matrix
[OGL LOG] update_host_mtx : 127 ms
[OGL LOG] matrix is not yet sorted, sorting host matrix
[OGL LOG] sort_host_mtx_sparsity_pattern : 177 ms
[OGL LOG] sort_host_mtx : 94 ms
[OGL LOG] init_preconditioner : 0 ms
[OGL LOG] solve : 10000 ms
BJcudaGKOBiCGStab:  Solving for p, Initial residual = 0.946816, Final residual = 0.484152, No Iterations 3000
linear solve p 10706217
time step continuity errors : sum local = 2.68119e+56, global = -3.51905e+40, cumulative = -2.78399e+40
ExecutionTime = 117.94 s  ClockTime = 118 s

End

