/*---------------------------------------------------------------------------*\
  =========                 |
  \\      /  F ield         | OpenFOAM: The Open Source CFD Toolbox
   \\    /   O peration     | Website:  https://openfoam.org
    \\  /    A nd           | Version:  8
     \\/     M anipulation  |
\*---------------------------------------------------------------------------*/
Build  : 8-40a5a48f630f
Exec   : icoFoam
Date   : Jul 28 2021
Time   : 11:56:06
Host   : "uc2n449.localdomain"
PID    : 1398256
I/O    : uncollated
Case   : /pfs/data5/home/kit/scc/nq7776/code/OBR/lidDrivenCavity3D/Variation_mesh/5/Variation_matrix_solver/CG_NoPrecond_Serial/base
nProcs : 1
sigFpe : Enabling floating point exception trapping (FOAM_SIGFPE).
fileModificationChecking : Monitoring run-time modified files using timeStampMaster (fileModificationSkew 10)
allowSystemOperations : Allowing user-supplied system call operations

// * * * * * * * * * * * * * * * * * * * * * * * * * * * * * * * * * * * * * //
Create time

Create mesh for time = 0

Reading transportProperties

Reading field p

Reading field U

Reading/calculating face flux field phi


Starting time loop

Time = 0.001

Courant Number mean: 0 max: 0
nonePBiCGStab:  Solving for Ux, Initial residual = 1, Final residual = 2.34893e-07, No Iterations 3
nonePBiCGStab:  Solving for Uy, Initial residual = 0, Final residual = 0, No Iterations 0
nonePBiCGStab:  Solving for Uz, Initial residual = 0, Final residual = 0, No Iterations 0
linear solve U 0
nonePCG:  Solving for p, Initial residual = 1, Final residual = 4.84498e-05, No Iterations 31
linear solve p 0
time step continuity errors : sum local = 9.09472e-09, global = -2.47927e-21, cumulative = -2.47927e-21
nonePCG:  Solving for p, Initial residual = 0.054493, Final residual = 9.23434e-05, No Iterations 26
linear solve p 0
time step continuity errors : sum local = 3.41031e-08, global = -3.05312e-21, cumulative = -5.53239e-21
ExecutionTime = 0.04 s  ClockTime = 0 s

Time = 0.002

Courant Number mean: 0.000593121 max: 0.00137349
nonePBiCGStab:  Solving for Ux, Initial residual = 0.290545, Final residual = 5.20344e-07, No Iterations 3
nonePBiCGStab:  Solving for Uy, Initial residual = 0.317546, Final residual = 8.88572e-08, No Iterations 3
nonePBiCGStab:  Solving for Uz, Initial residual = 0.317208, Final residual = 2.06639e-07, No Iterations 3
linear solve U 0
nonePCG:  Solving for p, Initial residual = 0.1104, Final residual = 9.32035e-05, No Iterations 15
linear solve p 0
time step continuity errors : sum local = 5.30664e-08, global = -7.92935e-21, cumulative = -1.34617e-20
nonePCG:  Solving for p, Initial residual = 0.00289507, Final residual = 6.30722e-05, No Iterations 10
linear solve p 0
time step continuity errors : sum local = 3.92709e-08, global = 3.32087e-22, cumulative = -1.31297e-20
ExecutionTime = 0.04 s  ClockTime = 0 s

Time = 0.003

Courant Number mean: 0.00113041 max: 0.00263299
nonePBiCGStab:  Solving for Ux, Initial residual = 0.161947, Final residual = 2.72965e-07, No Iterations 3
nonePBiCGStab:  Solving for Uy, Initial residual = 0.186574, Final residual = 5.50558e-08, No Iterations 3
nonePBiCGStab:  Solving for Uz, Initial residual = 0.229807, Final residual = 1.45063e-07, No Iterations 3
linear solve U 0
nonePCG:  Solving for p, Initial residual = 0.0561612, Final residual = 9.20393e-05, No Iterations 23
linear solve p 0
time step continuity errors : sum local = 4.3313e-08, global = 1.022e-20, cumulative = -2.90963e-21
nonePCG:  Solving for p, Initial residual = 0.00153162, Final residual = 6.01871e-05, No Iterations 6
linear solve p 0
time step continuity errors : sum local = 3.39412e-08, global = 8.16789e-21, cumulative = 5.25826e-21
ExecutionTime = 0.04 s  ClockTime = 0 s

Time = 0.004

Courant Number mean: 0.0016182 max: 0.00379122
nonePBiCGStab:  Solving for Ux, Initial residual = 0.108854, Final residual = 1.69544e-07, No Iterations 3
nonePBiCGStab:  Solving for Uy, Initial residual = 0.129126, Final residual = 8.08043e-07, No Iterations 2
nonePBiCGStab:  Solving for Uz, Initial residual = 0.175221, Final residual = 1.00512e-07, No Iterations 3
linear solve U 0
nonePCG:  Solving for p, Initial residual = 0.0347343, Final residual = 9.72696e-05, No Iterations 12
linear solve p 0
time step continuity errors : sum local = 6.57383e-08, global = 5.37905e-21, cumulative = 1.06373e-20
nonePCG:  Solving for p, Initial residual = 0.0010268, Final residual = 6.55768e-05, No Iterations 7
linear solve p 0
time step continuity errors : sum local = 5.07302e-08, global = 4.75546e-21, cumulative = 1.53928e-20
ExecutionTime = 0.04 s  ClockTime = 0 s

Time = 0.005

Courant Number mean: 0.00206191 max: 0.00485796
nonePBiCGStab:  Solving for Ux, Initial residual = 0.0800669, Final residual = 1.1381e-07, No Iterations 3
nonePBiCGStab:  Solving for Uy, Initial residual = 0.0966906, Final residual = 5.81597e-07, No Iterations 2
nonePBiCGStab:  Solving for Uz, Initial residual = 0.142945, Final residual = 9.35731e-08, No Iterations 3
linear solve U 0
nonePCG:  Solving for p, Initial residual = 0.0235498, Final residual = 8.74553e-05, No Iterations 23
linear solve p 0
time step continuity errors : sum local = 4.71636e-08, global = -7.62454e-21, cumulative = 7.76823e-21
nonePCG:  Solving for p, Initial residual = 0.000765919, Final residual = 7.82482e-05, No Iterations 6
linear solve p 0
time step continuity errors : sum local = 4.92454e-08, global = 1.26143e-20, cumulative = 2.03825e-20
ExecutionTime = 0.04 s  ClockTime = 0 s

Time = 0.006

Courant Number mean: 0.00246619 max: 0.00584194
nonePBiCGStab:  Solving for Ux, Initial residual = 0.0620368, Final residual = 8.00316e-08, No Iterations 3
nonePBiCGStab:  Solving for Uy, Initial residual = 0.0759909, Final residual = 4.33528e-07, No Iterations 2
nonePBiCGStab:  Solving for Uz, Initial residual = 0.118556, Final residual = 7.20317e-08, No Iterations 3
linear solve U 0
nonePCG:  Solving for p, Initial residual = 0.0172961, Final residual = 8.59928e-05, No Iterations 12
linear solve p 0
time step continuity errors : sum local = 6.98055e-08, global = 1.35678e-20, cumulative = 3.39504e-20
nonePCG:  Solving for p, Initial residual = 0.000631952, Final residual = 7.56551e-05, No Iterations 6
linear solve p 0
time step continuity errors : sum local = 6.32674e-08, global = 9.04108e-21, cumulative = 4.29914e-20
ExecutionTime = 0.04 s  ClockTime = 0 s

Time = 0.007

Courant Number mean: 0.00283514 max: 0.00675067
nonePBiCGStab:  Solving for Ux, Initial residual = 0.0497806, Final residual = 9.32103e-07, No Iterations 2
nonePBiCGStab:  Solving for Uy, Initial residual = 0.0616361, Final residual = 3.31916e-07, No Iterations 2
nonePBiCGStab:  Solving for Uz, Initial residual = 0.101567, Final residual = 8.8264e-07, No Iterations 2
linear solve U 0
nonePCG:  Solving for p, Initial residual = 0.0132892, Final residual = 6.93924e-05, No Iterations 23
linear solve p 0
time step continuity errors : sum local = 3.96623e-08, global = -6.50164e-21, cumulative = 3.64898e-20
nonePCG:  Solving for p, Initial residual = 0.000522581, Final residual = 6.38764e-05, No Iterations 6
linear solve p 0
time step continuity errors : sum local = 4.40736e-08, global = 3.65465e-20, cumulative = 7.30363e-20
ExecutionTime = 0.04 s  ClockTime = 0 s

Time = 0.008

Courant Number mean: 0.00317231 max: 0.00759082
nonePBiCGStab:  Solving for Ux, Initial residual = 0.0409003, Final residual = 7.0781e-07, No Iterations 2
nonePBiCGStab:  Solving for Uy, Initial residual = 0.0512142, Final residual = 2.58843e-07, No Iterations 2
nonePBiCGStab:  Solving for Uz, Initial residual = 0.0874895, Final residual = 7.59377e-07, No Iterations 2
linear solve U 0
nonePCG:  Solving for p, Initial residual = 0.0106286, Final residual = 7.60714e-05, No Iterations 12
linear solve p 0
time step continuity errors : sum local = 6.66078e-08, global = -5.52639e-21, cumulative = 6.75099e-20
nonePCG:  Solving for p, Initial residual = 0.000468472, Final residual = 6.61893e-05, No Iterations 6
linear solve p 0
time step continuity errors : sum local = 5.90839e-08, global = 3.62967e-21, cumulative = 7.11396e-20
ExecutionTime = 0.04 s  ClockTime = 0 s

Time = 0.009

Courant Number mean: 0.00348091 max: 0.00836826
nonePBiCGStab:  Solving for Ux, Initial residual = 0.0342429, Final residual = 5.43689e-07, No Iterations 2
nonePBiCGStab:  Solving for Uy, Initial residual = 0.0432833, Final residual = 2.05133e-07, No Iterations 2
nonePBiCGStab:  Solving for Uz, Initial residual = 0.0773214, Final residual = 6.40799e-07, No Iterations 2
linear solve U 0
nonePCG:  Solving for p, Initial residual = 0.00873318, Final residual = 6.72104e-05, No Iterations 23
linear solve p 0
time step continuity errors : sum local = 4.05837e-08, global = 1.48545e-20, cumulative = 8.59941e-20
nonePCG:  Solving for p, Initial residual = 0.000427198, Final residual = 9.25397e-05, No Iterations 5
linear solve p 0
time step continuity errors : sum local = 6.13322e-08, global = -2.31693e-21, cumulative = 8.36771e-20
ExecutionTime = 0.04 s  ClockTime = 0 s

Time = 0.01

Courant Number mean: 0.0037637 max: 0.00908823
nonePBiCGStab:  Solving for Ux, Initial residual = 0.0290452, Final residual = 4.20974e-07, No Iterations 2
nonePBiCGStab:  Solving for Uy, Initial residual = 0.0371272, Final residual = 1.6434e-07, No Iterations 2
nonePBiCGStab:  Solving for Uz, Initial residual = 0.0683994, Final residual = 5.52677e-07, No Iterations 2
linear solve U 0
nonePCG:  Solving for p, Initial residual = 0.0073533, Final residual = 6.6922e-05, No Iterations 12
linear solve p 0
time step continuity errors : sum local = 6.18394e-08, global = -1.10393e-20, cumulative = 7.26378e-20
nonePCG:  Solving for p, Initial residual = 0.000384592, Final residual = 8.29967e-05, No Iterations 5
linear solve p 0
time step continuity errors : sum local = 7.02364e-08, global = -1.22158e-20, cumulative = 6.0422e-20
ExecutionTime = 0.04 s  ClockTime = 0 s

End

