/*---------------------------------------------------------------------------*\
  =========                 |
  \\      /  F ield         | OpenFOAM: The Open Source CFD Toolbox
   \\    /   O peration     | Website:  https://openfoam.org
    \\  /    A nd           | Version:  8
     \\/     M anipulation  |
\*---------------------------------------------------------------------------*/
Build  : 8-14d69e1ee166
Exec   : icoFoam
Date   : Jul 29 2021
Time   : 08:17:14
Host   : "guyot.icl.utk.edu"
PID    : 110783
I/O    : uncollated
Case   : /home/greole/code/OBR/lidDrivenCavity3D/Variation_mesh/75/Variation_matrix_solver/BiCGStab_DIC_Serial/base
nProcs : 1
sigFpe : Enabling floating point exception trapping (FOAM_SIGFPE).
fileModificationChecking : Monitoring run-time modified files using timeStampMaster (fileModificationSkew 10)
allowSystemOperations : Allowing user-supplied system call operations

// * * * * * * * * * * * * * * * * * * * * * * * * * * * * * * * * * * * * * //
Create time

Create mesh for time = 0

Reading transportProperties

Reading field p

Reading field U

Reading/calculating face flux field phi


Starting time loop

Time = 0.001

Courant Number mean: 0 max: 0
DILUPBiCGStab:  Solving for Ux, Initial residual = 1, Final residual = 0.00209367, No Iterations 5
DILUPBiCGStab:  Solving for Uy:  solution singularity
DILUPBiCGStab:  Solving for Uz:  solution singularity
linear solve U 161510
DICPBiCGStab:  Solving for p, Initial residual = 1, Final residual = 7.16008e-05, No Iterations 138
linear solve p 2363546
time step continuity errors : sum local = 6.29228e-08, global = 1.99444e-21, cumulative = 1.99444e-21
DICPBiCGStab:  Solving for p, Initial residual = 0.735529, Final residual = 7.2804e-05, No Iterations 135
linear solve p 2277172
time step continuity errors : sum local = 7.61596e-08, global = 1.22596e-20, cumulative = 1.4254e-20
ExecutionTime = 6.72 s  ClockTime = 7 s

Time = 0.002

Courant Number mean: 0.0422936 max: 0.566001
DILUPBiCGStab:  Solving for Ux, Initial residual = 0.148602, Final residual = 0.000720114, No Iterations 5
DILUPBiCGStab:  Solving for Uy, Initial residual = 0.373466, Final residual = 0.00156884, No Iterations 5
DILUPBiCGStab:  Solving for Uz, Initial residual = 0.98376, Final residual = 0.00476319, No Iterations 5
linear solve U 312353
DICPBiCGStab:  Solving for p, Initial residual = 0.699983, Final residual = 3.40248e-05, No Iterations 133
linear solve p 2266404
time step continuity errors : sum local = 5.94695e-08, global = 2.415e-21, cumulative = 1.6669e-20
DICPBiCGStab:  Solving for p, Initial residual = 0.631025, Final residual = 4.38207e-05, No Iterations 133
linear solve p 2260666
time step continuity errors : sum local = 7.86416e-08, global = -8.6467e-21, cumulative = 8.02231e-21
ExecutionTime = 11.74 s  ClockTime = 12 s

Time = 0.003

Courant Number mean: 0.0635291 max: 0.668471
DILUPBiCGStab:  Solving for Ux, Initial residual = 0.054116, Final residual = 0.000215537, No Iterations 5
DILUPBiCGStab:  Solving for Uy, Initial residual = 0.130127, Final residual = 0.000491431, No Iterations 5
DILUPBiCGStab:  Solving for Uz, Initial residual = 0.618222, Final residual = 0.00299157, No Iterations 5
linear solve U 316348
DICPBiCGStab:  Solving for p, Initial residual = 0.65945, Final residual = 5.80629e-05, No Iterations 132
linear solve p 2285961
time step continuity errors : sum local = 4.65892e-08, global = -4.51928e-21, cumulative = 3.50303e-21
DICPBiCGStab:  Solving for p, Initial residual = 0.614132, Final residual = 9.93966e-05, No Iterations 120
linear solve p 2043182
time step continuity errors : sum local = 7.27196e-08, global = 1.0478e-20, cumulative = 1.3981e-20
ExecutionTime = 16.56 s  ClockTime = 17 s

Time = 0.004

Courant Number mean: 0.0745298 max: 0.679263
DILUPBiCGStab:  Solving for Ux, Initial residual = 0.0289132, Final residual = 0.000105248, No Iterations 5
DILUPBiCGStab:  Solving for Uy, Initial residual = 0.0889685, Final residual = 0.000297507, No Iterations 5
DILUPBiCGStab:  Solving for Uz, Initial residual = 0.337332, Final residual = 0.00123904, No Iterations 5
linear solve U 310944
DICPBiCGStab:  Solving for p, Initial residual = 0.458534, Final residual = 9.5445e-05, No Iterations 139
linear solve p 2369303
time step continuity errors : sum local = 7.61821e-08, global = -1.49958e-20, cumulative = -1.01478e-21
DICPBiCGStab:  Solving for p, Initial residual = 0.394514, Final residual = 9.41009e-05, No Iterations 61
linear solve p 1036757
time step continuity errors : sum local = 9.82942e-08, global = 9.44956e-21, cumulative = 8.43479e-21
ExecutionTime = 20.46 s  ClockTime = 21 s

Time = 0.005

Courant Number mean: 0.0834019 max: 0.689411
DILUPBiCGStab:  Solving for Ux, Initial residual = 0.021212, Final residual = 6.4467e-05, No Iterations 5
DILUPBiCGStab:  Solving for Uy, Initial residual = 0.0481199, Final residual = 0.000108939, No Iterations 5
DILUPBiCGStab:  Solving for Uz, Initial residual = 0.149969, Final residual = 0.000720879, No Iterations 5
linear solve U 311049
DICPBiCGStab:  Solving for p, Initial residual = 0.376374, Final residual = 8.08006e-05, No Iterations 125
linear solve p 2138381
time step continuity errors : sum local = 7.27373e-08, global = 2.56659e-20, cumulative = 3.41006e-20
DICPBiCGStab:  Solving for p, Initial residual = 0.327288, Final residual = 5.49241e-05, No Iterations 132
linear solve p 2248364
time step continuity errors : sum local = 3.11174e-08, global = 2.24777e-20, cumulative = 5.65784e-20
ExecutionTime = 25.33 s  ClockTime = 25 s

Time = 0.006

Courant Number mean: 0.0901468 max: 0.695124
DILUPBiCGStab:  Solving for Ux, Initial residual = 0.0146662, Final residual = 3.89944e-05, No Iterations 5
DILUPBiCGStab:  Solving for Uy, Initial residual = 0.038558, Final residual = 8.29191e-05, No Iterations 5
DILUPBiCGStab:  Solving for Uz, Initial residual = 0.130793, Final residual = 0.000574234, No Iterations 5
linear solve U 311354
DICPBiCGStab:  Solving for p, Initial residual = 0.244324, Final residual = 9.61833e-05, No Iterations 126
linear solve p 2148499
time step continuity errors : sum local = 7.30812e-08, global = -1.61134e-22, cumulative = 5.64173e-20
DICPBiCGStab:  Solving for p, Initial residual = 0.205538, Final residual = 9.75774e-05, No Iterations 123
linear solve p 2098209
time step continuity errors : sum local = 7.57559e-08, global = 1.56023e-20, cumulative = 7.20196e-20
ExecutionTime = 30.07 s  ClockTime = 30 s

Time = 0.007

Courant Number mean: 0.0957274 max: 0.698942
DILUPBiCGStab:  Solving for Ux, Initial residual = 0.0120218, Final residual = 2.61223e-05, No Iterations 5
DILUPBiCGStab:  Solving for Uy, Initial residual = 0.0279913, Final residual = 5.01681e-05, No Iterations 5
DILUPBiCGStab:  Solving for Uz, Initial residual = 0.0834924, Final residual = 0.000343901, No Iterations 5
linear solve U 311271
DICPBiCGStab:  Solving for p, Initial residual = 0.185146, Final residual = 8.2819e-05, No Iterations 129
linear solve p 2206980
time step continuity errors : sum local = 4.14547e-08, global = 1.62937e-21, cumulative = 7.36489e-20
DICPBiCGStab:  Solving for p, Initial residual = 0.156822, Final residual = 9.69899e-05, No Iterations 117
linear solve p 1999006
time step continuity errors : sum local = 5.27997e-08, global = -1.05608e-20, cumulative = 6.30881e-20
ExecutionTime = 34.77 s  ClockTime = 35 s

Time = 0.008

Courant Number mean: 0.1004 max: 0.702023
DILUPBiCGStab:  Solving for Ux, Initial residual = 0.00954404, Final residual = 1.83559e-05, No Iterations 5
DILUPBiCGStab:  Solving for Uy, Initial residual = 0.0235934, Final residual = 3.61823e-05, No Iterations 5
DILUPBiCGStab:  Solving for Uz, Initial residual = 0.0750092, Final residual = 0.000305967, No Iterations 5
linear solve U 311544
DICPBiCGStab:  Solving for p, Initial residual = 0.1254, Final residual = 6.03901e-05, No Iterations 120
linear solve p 2054803
time step continuity errors : sum local = 4.78854e-08, global = 8.51086e-21, cumulative = 7.15989e-20
DICPBiCGStab:  Solving for p, Initial residual = 0.104557, Final residual = 8.23523e-05, No Iterations 118
linear solve p 2010547
time step continuity errors : sum local = 6.53605e-08, global = -2.87122e-21, cumulative = 6.87277e-20
ExecutionTime = 39.32 s  ClockTime = 39 s

Time = 0.009

Courant Number mean: 0.104398 max: 0.704267
DILUPBiCGStab:  Solving for Ux, Initial residual = 0.00812321, Final residual = 1.28718e-05, No Iterations 5
DILUPBiCGStab:  Solving for Uy, Initial residual = 0.0192235, Final residual = 3.02533e-05, No Iterations 5
DILUPBiCGStab:  Solving for Uz, Initial residual = 0.0612349, Final residual = 0.000249679, No Iterations 5
linear solve U 311730
DICPBiCGStab:  Solving for p, Initial residual = 0.0951192, Final residual = 9.98989e-05, No Iterations 117
linear solve p 1998848
time step continuity errors : sum local = 7.73829e-08, global = -3.28099e-21, cumulative = 6.54467e-20
DICPBiCGStab:  Solving for p, Initial residual = 0.0799983, Final residual = 8.05482e-05, No Iterations 117
linear solve p 1996907
time step continuity errors : sum local = 6.0077e-08, global = 1.48998e-20, cumulative = 8.03466e-20
ExecutionTime = 43.81 s  ClockTime = 44 s

Time = 0.01

Courant Number mean: 0.107883 max: 0.706158
DILUPBiCGStab:  Solving for Ux, Initial residual = 0.00681289, Final residual = 1.16532e-05, No Iterations 5
DILUPBiCGStab:  Solving for Uy, Initial residual = 0.0171082, Final residual = 2.72483e-05, No Iterations 5
DILUPBiCGStab:  Solving for Uz, Initial residual = 0.0612556, Final residual = 0.00030047, No Iterations 5
linear solve U 311749
DICPBiCGStab:  Solving for p, Initial residual = 0.0695063, Final residual = 9.77809e-05, No Iterations 122
linear solve p 2081969
time step continuity errors : sum local = 5.31799e-08, global = 8.84086e-21, cumulative = 8.91874e-20
DICPBiCGStab:  Solving for p, Initial residual = 0.0586247, Final residual = 8.94435e-05, No Iterations 110
linear solve p 1870560
time step continuity errors : sum local = 6.8911e-08, global = 1.30308e-20, cumulative = 1.02218e-19
ExecutionTime = 48.25 s  ClockTime = 48 s

End

