/*---------------------------------------------------------------------------*\
  =========                 |
  \\      /  F ield         | OpenFOAM: The Open Source CFD Toolbox
   \\    /   O peration     | Website:  https://openfoam.org
    \\  /    A nd           | Version:  8
     \\/     M anipulation  |
\*---------------------------------------------------------------------------*/
Build  : 8-ef60d22ea792
Exec   : icoFoam
Date   : Jul 29 2021
Time   : 07:28:00
Host   : "nla-gpu2.ianm.kit.edu"
PID    : 1953882
I/O    : uncollated
Case   : /home/greole/code/OBR/lidDrivenCavity3D/Variation_mesh/30/Variation_matrix_solver/CG_NoPrecond_Serial/base
nProcs : 1
sigFpe : Enabling floating point exception trapping (FOAM_SIGFPE).
fileModificationChecking : Monitoring run-time modified files using timeStampMaster (fileModificationSkew 10)
allowSystemOperations : Allowing user-supplied system call operations

// * * * * * * * * * * * * * * * * * * * * * * * * * * * * * * * * * * * * * //
Create time

Create mesh for time = 0

Reading transportProperties

Reading field p

Reading field U

Reading/calculating face flux field phi


Starting time loop

Time = 0.001

Courant Number mean: 0 max: 0
DILUPBiCGStab:  Solving for Ux, Initial residual = 1, Final residual = 2.30612e-07, No Iterations 5
DILUPBiCGStab:  Solving for Uy:  solution singularity
DILUPBiCGStab:  Solving for Uz:  solution singularity
linear solve U 9759
nonePCG:  Solving for p, Initial residual = 1, Final residual = 8.82163e-05, No Iterations 231
linear solve p 61647
time step continuity errors : sum local = 4.74271e-08, global = 5.31678e-21, cumulative = 5.31678e-21
nonePCG:  Solving for p, Initial residual = 0.53374, Final residual = 9.51832e-05, No Iterations 226
linear solve p 60371
time step continuity errors : sum local = 7.99342e-08, global = -7.35906e-22, cumulative = 4.58087e-21
ExecutionTime = 0.32 s  ClockTime = 1 s

Time = 0.002

Courant Number mean: 0.0151361 max: 0.148264
DILUPBiCGStab:  Solving for Ux, Initial residual = 0.196126, Final residual = 3.64368e-08, No Iterations 5
DILUPBiCGStab:  Solving for Uy, Initial residual = 0.280247, Final residual = 4.08023e-08, No Iterations 5
DILUPBiCGStab:  Solving for Uz, Initial residual = 0.925444, Final residual = 1.58499e-07, No Iterations 5
linear solve U 19542
nonePCG:  Solving for p, Initial residual = 0.352727, Final residual = 9.34611e-05, No Iterations 223
linear solve p 59500
time step continuity errors : sum local = 7.35192e-08, global = 2.6418e-21, cumulative = 7.22267e-21
nonePCG:  Solving for p, Initial residual = 0.25368, Final residual = 9.10363e-05, No Iterations 220
linear solve p 58834
time step continuity errors : sum local = 7.54338e-08, global = 1.75506e-20, cumulative = 2.47733e-20
ExecutionTime = 0.48 s  ClockTime = 1 s

Time = 0.003

Courant Number mean: 0.0235106 max: 0.204199
DILUPBiCGStab:  Solving for Ux, Initial residual = 0.0796136, Final residual = 1.29716e-08, No Iterations 5
DILUPBiCGStab:  Solving for Uy, Initial residual = 0.11625, Final residual = 1.1366e-08, No Iterations 5
DILUPBiCGStab:  Solving for Uz, Initial residual = 0.202094, Final residual = 3.4651e-08, No Iterations 5
linear solve U 17829
nonePCG:  Solving for p, Initial residual = 0.112485, Final residual = 8.8933e-05, No Iterations 213
linear solve p 56839
time step continuity errors : sum local = 6.50301e-08, global = 1.93527e-20, cumulative = 4.4126e-20
nonePCG:  Solving for p, Initial residual = 0.0832843, Final residual = 8.97732e-05, No Iterations 207
linear solve p 58375
time step continuity errors : sum local = 6.68611e-08, global = -7.91591e-21, cumulative = 3.62101e-20
ExecutionTime = 0.62 s  ClockTime = 1 s

Time = 0.004

Courant Number mean: 0.0286421 max: 0.226394
DILUPBiCGStab:  Solving for Ux, Initial residual = 0.0460387, Final residual = 6.36557e-09, No Iterations 5
DILUPBiCGStab:  Solving for Uy, Initial residual = 0.0700072, Final residual = 4.3291e-09, No Iterations 5
DILUPBiCGStab:  Solving for Uz, Initial residual = 0.109554, Final residual = 1.4041e-08, No Iterations 5
linear solve U 17747
nonePCG:  Solving for p, Initial residual = 0.0571084, Final residual = 9.65957e-05, No Iterations 205
linear solve p 54350
time step continuity errors : sum local = 7.07855e-08, global = 6.0636e-21, cumulative = 4.22737e-20
nonePCG:  Solving for p, Initial residual = 0.0420058, Final residual = 8.81044e-05, No Iterations 202
linear solve p 54067
time step continuity errors : sum local = 6.56432e-08, global = 1.73998e-20, cumulative = 5.96735e-20
ExecutionTime = 0.76 s  ClockTime = 1 s

Time = 0.005

Courant Number mean: 0.0323427 max: 0.237404
DILUPBiCGStab:  Solving for Ux, Initial residual = 0.0314341, Final residual = 2.99109e-09, No Iterations 5
DILUPBiCGStab:  Solving for Uy, Initial residual = 0.048221, Final residual = 2.41824e-09, No Iterations 5
DILUPBiCGStab:  Solving for Uz, Initial residual = 0.0797809, Final residual = 8.29811e-09, No Iterations 5
linear solve U 18520
nonePCG:  Solving for p, Initial residual = 0.0353753, Final residual = 9.14103e-05, No Iterations 202
linear solve p 54536
time step continuity errors : sum local = 6.81855e-08, global = 8.9266e-21, cumulative = 6.86001e-20
nonePCG:  Solving for p, Initial residual = 0.0261992, Final residual = 8.65347e-05, No Iterations 199
linear solve p 53045
time step continuity errors : sum local = 6.5098e-08, global = 1.8799e-20, cumulative = 8.73991e-20
ExecutionTime = 0.89 s  ClockTime = 1 s

Time = 0.006

Courant Number mean: 0.0352087 max: 0.243905
DILUPBiCGStab:  Solving for Ux, Initial residual = 0.0234908, Final residual = 1.11404e-09, No Iterations 5
DILUPBiCGStab:  Solving for Uy, Initial residual = 0.036419, Final residual = 1.59058e-09, No Iterations 5
DILUPBiCGStab:  Solving for Uz, Initial residual = 0.0633854, Final residual = 5.54375e-09, No Iterations 5
linear solve U 18092
nonePCG:  Solving for p, Initial residual = 0.0251756, Final residual = 9.28041e-05, No Iterations 200
linear solve p 56720
time step continuity errors : sum local = 7.00382e-08, global = 5.01154e-20, cumulative = 1.37515e-19
nonePCG:  Solving for p, Initial residual = 0.0187463, Final residual = 9.89327e-05, No Iterations 197
linear solve p 52691
time step continuity errors : sum local = 7.51143e-08, global = 7.72414e-21, cumulative = 1.45239e-19
ExecutionTime = 1.03 s  ClockTime = 1 s

Time = 0.007

Courant Number mean: 0.0375052 max: 0.24826
DILUPBiCGStab:  Solving for Ux, Initial residual = 0.0185386, Final residual = 5.57316e-10, No Iterations 5
DILUPBiCGStab:  Solving for Uy, Initial residual = 0.0289671, Final residual = 1.1432e-09, No Iterations 5
DILUPBiCGStab:  Solving for Uz, Initial residual = 0.052358, Final residual = 3.58742e-09, No Iterations 5
linear solve U 17905
nonePCG:  Solving for p, Initial residual = 0.0195262, Final residual = 9.57209e-05, No Iterations 94
linear solve p 25469
time step continuity errors : sum local = 9.00717e-08, global = -5.26893e-21, cumulative = 1.3997e-19
nonePCG:  Solving for p, Initial residual = 0.0146708, Final residual = 9.67416e-05, No Iterations 86
linear solve p 23299
time step continuity errors : sum local = 8.05659e-08, global = 1.4411e-21, cumulative = 1.41411e-19
ExecutionTime = 1.11 s  ClockTime = 1 s

Time = 0.008

Courant Number mean: 0.0393976 max: 0.251424
DILUPBiCGStab:  Solving for Ux, Initial residual = 0.0151086, Final residual = 3.4554e-10, No Iterations 5
DILUPBiCGStab:  Solving for Uy, Initial residual = 0.0238589, Final residual = 8.32859e-10, No Iterations 5
DILUPBiCGStab:  Solving for Uz, Initial residual = 0.0442652, Final residual = 2.37308e-09, No Iterations 5
linear solve U 18402
nonePCG:  Solving for p, Initial residual = 0.0158223, Final residual = 9.94444e-05, No Iterations 88
linear solve p 23864
time step continuity errors : sum local = 9.1657e-08, global = 1.5345e-20, cumulative = 1.56756e-19
nonePCG:  Solving for p, Initial residual = 0.0119725, Final residual = 9.75686e-05, No Iterations 84
linear solve p 22732
time step continuity errors : sum local = 8.39995e-08, global = -3.78411e-20, cumulative = 1.18915e-19
ExecutionTime = 1.18 s  ClockTime = 1 s

Time = 0.009

Courant Number mean: 0.0410398 max: 0.253855
DILUPBiCGStab:  Solving for Ux, Initial residual = 0.0126598, Final residual = 2.44306e-10, No Iterations 5
DILUPBiCGStab:  Solving for Uy, Initial residual = 0.0201118, Final residual = 6.2461e-10, No Iterations 5
DILUPBiCGStab:  Solving for Uz, Initial residual = 0.0379979, Final residual = 1.57983e-09, No Iterations 5
linear solve U 19709
nonePCG:  Solving for p, Initial residual = 0.0131492, Final residual = 9.8164e-05, No Iterations 87
linear solve p 23612
time step continuity errors : sum local = 9.27313e-08, global = -1.32747e-21, cumulative = 1.17587e-19
nonePCG:  Solving for p, Initial residual = 0.00999606, Final residual = 9.84746e-05, No Iterations 83
linear solve p 24704
time step continuity errors : sum local = 8.7443e-08, global = 3.6388e-20, cumulative = 1.53975e-19
ExecutionTime = 1.26 s  ClockTime = 1 s

Time = 0.01

Courant Number mean: 0.0424712 max: 0.255787
DILUPBiCGStab:  Solving for Ux, Initial residual = 0.010786, Final residual = 1.85984e-10, No Iterations 5
DILUPBiCGStab:  Solving for Uy, Initial residual = 0.0172533, Final residual = 4.82432e-10, No Iterations 5
DILUPBiCGStab:  Solving for Uz, Initial residual = 0.0330642, Final residual = 1.10739e-09, No Iterations 5
linear solve U 18274
nonePCG:  Solving for p, Initial residual = 0.0111381, Final residual = 9.53033e-05, No Iterations 86
linear solve p 25549
time step continuity errors : sum local = 9.15859e-08, global = -3.56241e-21, cumulative = 1.50413e-19
nonePCG:  Solving for p, Initial residual = 0.00850345, Final residual = 9.23192e-05, No Iterations 83
linear solve p 22466
time step continuity errors : sum local = 8.47882e-08, global = 2.5538e-20, cumulative = 1.75951e-19
ExecutionTime = 1.35 s  ClockTime = 2 s

End

