/*---------------------------------------------------------------------------*\
  =========                 |
  \\      /  F ield         | OpenFOAM: The Open Source CFD Toolbox
   \\    /   O peration     | Website:  https://openfoam.org
    \\  /    A nd           | Version:  8
     \\/     M anipulation  |
\*---------------------------------------------------------------------------*/
Build  : 8-ef60d22ea792
Exec   : icoFoam
Date   : Jul 28 2021
Time   : 14:58:38
Host   : "nla-gpu2.ianm.kit.edu"
PID    : 1499799
I/O    : uncollated
Case   : /home/greole/code/OBR/lidDrivenCavity3D/Variation_mesh/85/Variation_matrix_solver/BiCGStab_DIC_Serial/base
nProcs : 1
sigFpe : Enabling floating point exception trapping (FOAM_SIGFPE).
fileModificationChecking : Monitoring run-time modified files using timeStampMaster (fileModificationSkew 10)
allowSystemOperations : Allowing user-supplied system call operations

// * * * * * * * * * * * * * * * * * * * * * * * * * * * * * * * * * * * * * //
Create time

Create mesh for time = 0

Reading transportProperties

Reading field p

Reading field U

Reading/calculating face flux field phi


Starting time loop

Time = 0.001

Courant Number mean: 0 max: 0
DILUPBiCGStab:  Solving for Ux, Initial residual = 1, Final residual = 0.00382019, No Iterations 5
DILUPBiCGStab:  Solving for Uy:  solution singularity
DILUPBiCGStab:  Solving for Uz:  solution singularity
linear solve U 251917
DICPBiCGStab:  Solving for p, Initial residual = 1, Final residual = 6.66902e-05, No Iterations 160
linear solve p 4227536
time step continuity errors : sum local = 7.78192e-08, global = 1.61352e-21, cumulative = 1.61352e-21
DICPBiCGStab:  Solving for p, Initial residual = 0.754873, Final residual = 9.30438e-05, No Iterations 153
linear solve p 4051804
time step continuity errors : sum local = 1.40229e-07, global = -7.74806e-21, cumulative = -6.13454e-21
ExecutionTime = 11.51 s  ClockTime = 12 s

Time = 0.002

Courant Number mean: 0.0479755 max: 0.661591
DILUPBiCGStab:  Solving for Ux, Initial residual = 0.143934, Final residual = 0.00147614, No Iterations 5
DILUPBiCGStab:  Solving for Uy, Initial residual = 0.397247, Final residual = 0.00365345, No Iterations 5
DILUPBiCGStab:  Solving for Uz, Initial residual = 0.98159, Final residual = 0.0101803, No Iterations 5
linear solve U 485028
DICPBiCGStab:  Solving for p, Initial residual = 0.746492, Final residual = 9.5288e-05, No Iterations 163
linear solve p 4274474
time step continuity errors : sum local = 9.74985e-08, global = -1.00216e-20, cumulative = -1.61561e-20
DICPBiCGStab:  Solving for p, Initial residual = 0.682331, Final residual = 9.90579e-05, No Iterations 76
linear solve p 1992354
time step continuity errors : sum local = 1.22117e-07, global = -3.74571e-21, cumulative = -1.99018e-20
ExecutionTime = 18.52 s  ClockTime = 19 s

Time = 0.003

Courant Number mean: 0.072343 max: 0.775872
DILUPBiCGStab:  Solving for Ux, Initial residual = 0.0581828, Final residual = 0.000506167, No Iterations 5
DILUPBiCGStab:  Solving for Uy, Initial residual = 0.162536, Final residual = 0.00138029, No Iterations 5
DILUPBiCGStab:  Solving for Uz, Initial residual = 0.728596, Final residual = 0.00702331, No Iterations 5
linear solve U 487810
DICPBiCGStab:  Solving for p, Initial residual = 0.746887, Final residual = 9.44466e-05, No Iterations 173
linear solve p 4509879
time step continuity errors : sum local = 7.30844e-08, global = -4.80088e-22, cumulative = -2.03819e-20
DICPBiCGStab:  Solving for p, Initial residual = 0.706243, Final residual = 9.86257e-05, No Iterations 150
linear solve p 3957031
time step continuity errors : sum local = 8.23956e-08, global = 1.54916e-21, cumulative = -1.88328e-20
ExecutionTime = 27.73 s  ClockTime = 28 s

Time = 0.004

Courant Number mean: 0.0842106 max: 0.778385
DILUPBiCGStab:  Solving for Ux, Initial residual = 0.0311476, Final residual = 0.000293064, No Iterations 5
DILUPBiCGStab:  Solving for Uy, Initial residual = 0.114581, Final residual = 0.000998263, No Iterations 5
DILUPBiCGStab:  Solving for Uz, Initial residual = 0.474129, Final residual = 0.00383634, No Iterations 5
linear solve U 480501
DICPBiCGStab:  Solving for p, Initial residual = 0.594368, Final residual = 9.51469e-05, No Iterations 149
linear solve p 3890846
time step continuity errors : sum local = 1.23047e-07, global = -2.82276e-21, cumulative = -2.16555e-20
DICPBiCGStab:  Solving for p, Initial residual = 0.530426, Final residual = 8.53178e-05, No Iterations 71
linear solve p 1898247
time step continuity errors : sum local = 7.35568e-08, global = 9.18006e-21, cumulative = -1.24755e-20
ExecutionTime = 34.27 s  ClockTime = 35 s

Time = 0.005

Courant Number mean: 0.0944231 max: 0.789539
DILUPBiCGStab:  Solving for Ux, Initial residual = 0.0234943, Final residual = 0.000194327, No Iterations 5
DILUPBiCGStab:  Solving for Uy, Initial residual = 0.0591027, Final residual = 0.000437143, No Iterations 5
DILUPBiCGStab:  Solving for Uz, Initial residual = 0.300163, Final residual = 0.00260806, No Iterations 5
linear solve U 484495
DICPBiCGStab:  Solving for p, Initial residual = 0.551023, Final residual = 9.68861e-05, No Iterations 144
linear solve p 3778004
time step continuity errors : sum local = 7.86736e-08, global = 1.54652e-21, cumulative = -1.0929e-20
DICPBiCGStab:  Solving for p, Initial residual = 0.497378, Final residual = 6.36826e-05, No Iterations 138
linear solve p 3622186
time step continuity errors : sum local = 5.46324e-08, global = 4.32858e-21, cumulative = -6.60037e-21
ExecutionTime = 42.4 s  ClockTime = 43 s

Time = 0.006

Courant Number mean: 0.101938 max: 0.795153
DILUPBiCGStab:  Solving for Ux, Initial residual = 0.015204, Final residual = 0.000113566, No Iterations 5
DILUPBiCGStab:  Solving for Uy, Initial residual = 0.0487435, Final residual = 0.000345232, No Iterations 5
DILUPBiCGStab:  Solving for Uz, Initial residual = 0.235569, Final residual = 0.0022229, No Iterations 5
linear solve U 488058
DICPBiCGStab:  Solving for p, Initial residual = 0.408604, Final residual = 9.97252e-05, No Iterations 152
linear solve p 3972790
time step continuity errors : sum local = 5.12976e-08, global = -6.76487e-21, cumulative = -1.33652e-20
DICPBiCGStab:  Solving for p, Initial residual = 0.356595, Final residual = 9.98425e-05, No Iterations 150
linear solve p 3967904
time step continuity errors : sum local = 4.86666e-08, global = 3.84052e-21, cumulative = -9.52471e-21
ExecutionTime = 51.09 s  ClockTime = 52 s

Time = 0.007

Courant Number mean: 0.10832 max: 0.798753
DILUPBiCGStab:  Solving for Ux, Initial residual = 0.0126477, Final residual = 8.39889e-05, No Iterations 5
DILUPBiCGStab:  Solving for Uy, Initial residual = 0.032163, Final residual = 0.00014906, No Iterations 5
DILUPBiCGStab:  Solving for Uz, Initial residual = 0.140891, Final residual = 0.00134085, No Iterations 5
linear solve U 479689
DICPBiCGStab:  Solving for p, Initial residual = 0.353498, Final residual = 9.88707e-05, No Iterations 135
linear solve p 3524918
time step continuity errors : sum local = 8.17798e-08, global = -5.16447e-21, cumulative = -1.46892e-20
DICPBiCGStab:  Solving for p, Initial residual = 0.307808, Final residual = 8.06188e-05, No Iterations 142
linear solve p 3760723
time step continuity errors : sum local = 6.65685e-08, global = 5.04165e-21, cumulative = -9.64753e-21
ExecutionTime = 59.11 s  ClockTime = 60 s

Time = 0.008

Courant Number mean: 0.113583 max: 0.802037
DILUPBiCGStab:  Solving for Ux, Initial residual = 0.00954693, Final residual = 5.57112e-05, No Iterations 5
DILUPBiCGStab:  Solving for Uy, Initial residual = 0.0271262, Final residual = 0.00013118, No Iterations 5
DILUPBiCGStab:  Solving for Uz, Initial residual = 0.103518, Final residual = 0.000900425, No Iterations 5
linear solve U 484575
DICPBiCGStab:  Solving for p, Initial residual = 0.258449, Final residual = 9.01682e-05, No Iterations 145
linear solve p 3803326
time step continuity errors : sum local = 3.954e-08, global = -4.60959e-21, cumulative = -1.42571e-20
DICPBiCGStab:  Solving for p, Initial residual = 0.222508, Final residual = 3.2044e-05, No Iterations 134
linear solve p 3520546
time step continuity errors : sum local = 2.5302e-08, global = 1.13916e-20, cumulative = -2.86557e-21
ExecutionTime = 67.17 s  ClockTime = 68 s

Time = 0.009

Courant Number mean: 0.118148 max: 0.804101
DILUPBiCGStab:  Solving for Ux, Initial residual = 0.00806362, Final residual = 4.24091e-05, No Iterations 5
DILUPBiCGStab:  Solving for Uy, Initial residual = 0.0206889, Final residual = 7.13591e-05, No Iterations 5
DILUPBiCGStab:  Solving for Uz, Initial residual = 0.0665794, Final residual = 0.000552678, No Iterations 5
linear solve U 488363
DICPBiCGStab:  Solving for p, Initial residual = 0.211004, Final residual = 6.53158e-05, No Iterations 64
linear solve p 1672786
time step continuity errors : sum local = 3.2479e-08, global = -1.81165e-20, cumulative = -2.09821e-20
DICPBiCGStab:  Solving for p, Initial residual = 0.180447, Final residual = 8.1316e-05, No Iterations 64
linear solve p 1692077
time step continuity errors : sum local = 4.47428e-08, global = -1.0335e-20, cumulative = -3.13171e-20
ExecutionTime = 71.3 s  ClockTime = 72 s

Time = 0.01

Courant Number mean: 0.12209 max: 0.806147
DILUPBiCGStab:  Solving for Ux, Initial residual = 0.00662858, Final residual = 3.17609e-05, No Iterations 5
DILUPBiCGStab:  Solving for Uy, Initial residual = 0.0178653, Final residual = 5.81539e-05, No Iterations 5
DILUPBiCGStab:  Solving for Uz, Initial residual = 0.0527101, Final residual = 0.000364292, No Iterations 5
linear solve U 480052
DICPBiCGStab:  Solving for p, Initial residual = 0.158192, Final residual = 9.64583e-05, No Iterations 66
linear solve p 1724072
time step continuity errors : sum local = 6.64749e-08, global = -4.93213e-22, cumulative = -3.18103e-20
DICPBiCGStab:  Solving for p, Initial residual = 0.134285, Final residual = 9.97351e-05, No Iterations 63
linear solve p 1685194
time step continuity errors : sum local = 5.70594e-08, global = -1.20827e-20, cumulative = -4.3893e-20
ExecutionTime = 75.46 s  ClockTime = 76 s

End

