/*---------------------------------------------------------------------------*\
  =========                 |
  \\      /  F ield         | OpenFOAM: The Open Source CFD Toolbox
   \\    /   O peration     | Website:  https://openfoam.org
    \\  /    A nd           | Version:  8
     \\/     M anipulation  |
\*---------------------------------------------------------------------------*/
Build  : 8-14d69e1ee166
Exec   : icoFoam
Date   : Jul 29 2021
Time   : 08:47:15
Host   : "guyot.icl.utk.edu"
PID    : 176020
I/O    : uncollated
Case   : /home/greole/code/OBR/lidDrivenCavity3D/Variation_mesh/30/Variation_matrix_solver/CG_DIC_Serial/base
nProcs : 1
sigFpe : Enabling floating point exception trapping (FOAM_SIGFPE).
fileModificationChecking : Monitoring run-time modified files using timeStampMaster (fileModificationSkew 10)
allowSystemOperations : Allowing user-supplied system call operations

// * * * * * * * * * * * * * * * * * * * * * * * * * * * * * * * * * * * * * //
Create time

Create mesh for time = 0

Reading transportProperties

Reading field p

Reading field U

Reading/calculating face flux field phi


Starting time loop

Time = 0.001

Courant Number mean: 0 max: 0
DILUPBiCGStab:  Solving for Ux, Initial residual = 1, Final residual = 2.30612e-07, No Iterations 5
DILUPBiCGStab:  Solving for Uy:  solution singularity
DILUPBiCGStab:  Solving for Uz:  solution singularity
linear solve U 9689
DICPCG:  Solving for p, Initial residual = 1, Final residual = 8.03734e-05, No Iterations 74
linear solve p 35519
time step continuity errors : sum local = 4.32011e-08, global = 5.19924e-21, cumulative = 5.19924e-21
DICPCG:  Solving for p, Initial residual = 0.533744, Final residual = 5.58088e-05, No Iterations 73
linear solve p 34757
time step continuity errors : sum local = 4.68642e-08, global = -7.65476e-21, cumulative = -2.45551e-21
ExecutionTime = 0.28 s  ClockTime = 0 s

Time = 0.002

Courant Number mean: 0.0151361 max: 0.148264
DILUPBiCGStab:  Solving for Ux, Initial residual = 0.196126, Final residual = 3.64367e-08, No Iterations 5
DILUPBiCGStab:  Solving for Uy, Initial residual = 0.280248, Final residual = 4.08022e-08, No Iterations 5
DILUPBiCGStab:  Solving for Uz, Initial residual = 0.925472, Final residual = 1.58528e-07, No Iterations 5
linear solve U 17509
DICPCG:  Solving for p, Initial residual = 0.352713, Final residual = 8.25267e-05, No Iterations 70
linear solve p 36549
time step continuity errors : sum local = 6.49219e-08, global = -7.46753e-21, cumulative = -9.92304e-21
DICPCG:  Solving for p, Initial residual = 0.253676, Final residual = 8.17647e-05, No Iterations 69
linear solve p 32888
time step continuity errors : sum local = 6.77502e-08, global = -1.15938e-20, cumulative = -2.15169e-20
ExecutionTime = 0.38 s  ClockTime = 0 s

Time = 0.003

Courant Number mean: 0.0235106 max: 0.204198
DILUPBiCGStab:  Solving for Ux, Initial residual = 0.0796137, Final residual = 1.29716e-08, No Iterations 5
DILUPBiCGStab:  Solving for Uy, Initial residual = 0.116249, Final residual = 1.13663e-08, No Iterations 5
DILUPBiCGStab:  Solving for Uz, Initial residual = 0.202011, Final residual = 3.46518e-08, No Iterations 5
linear solve U 18138
DICPCG:  Solving for p, Initial residual = 0.112565, Final residual = 7.5419e-05, No Iterations 67
linear solve p 32074
time step continuity errors : sum local = 5.51362e-08, global = 1.00056e-20, cumulative = -1.15113e-20
DICPCG:  Solving for p, Initial residual = 0.0833443, Final residual = 9.56162e-05, No Iterations 65
linear solve p 31107
time step continuity errors : sum local = 7.11943e-08, global = 1.82435e-20, cumulative = 6.73216e-21
ExecutionTime = 0.47 s  ClockTime = 0 s

Time = 0.004

Courant Number mean: 0.0286421 max: 0.226394
DILUPBiCGStab:  Solving for Ux, Initial residual = 0.0460383, Final residual = 6.36578e-09, No Iterations 5
DILUPBiCGStab:  Solving for Uy, Initial residual = 0.0700084, Final residual = 4.32905e-09, No Iterations 5
DILUPBiCGStab:  Solving for Uz, Initial residual = 0.109668, Final residual = 1.40604e-08, No Iterations 5
linear solve U 17584
DICPCG:  Solving for p, Initial residual = 0.0570069, Final residual = 7.2536e-05, No Iterations 65
linear solve p 31055
time step continuity errors : sum local = 5.31562e-08, global = -7.27436e-21, cumulative = -5.42197e-22
DICPCG:  Solving for p, Initial residual = 0.0419249, Final residual = 7.28375e-05, No Iterations 64
linear solve p 31455
time step continuity errors : sum local = 5.42732e-08, global = 4.00536e-21, cumulative = 3.46317e-21
ExecutionTime = 0.56 s  ClockTime = 0 s

Time = 0.005

Courant Number mean: 0.0323427 max: 0.237404
DILUPBiCGStab:  Solving for Ux, Initial residual = 0.0314338, Final residual = 2.99107e-09, No Iterations 5
DILUPBiCGStab:  Solving for Uy, Initial residual = 0.0482206, Final residual = 2.41837e-09, No Iterations 5
DILUPBiCGStab:  Solving for Uz, Initial residual = 0.079811, Final residual = 8.3031e-09, No Iterations 5
linear solve U 17342
DICPCG:  Solving for p, Initial residual = 0.0353425, Final residual = 6.56319e-05, No Iterations 64
linear solve p 30727
time step continuity errors : sum local = 4.89642e-08, global = -3.09154e-20, cumulative = -2.74522e-20
DICPCG:  Solving for p, Initial residual = 0.0261706, Final residual = 7.52342e-05, No Iterations 63
linear solve p 30190
time step continuity errors : sum local = 5.66098e-08, global = -1.06372e-20, cumulative = -3.80894e-20
ExecutionTime = 0.65 s  ClockTime = 1 s

Time = 0.006

Courant Number mean: 0.0352087 max: 0.243905
DILUPBiCGStab:  Solving for Ux, Initial residual = 0.0234905, Final residual = 1.11401e-09, No Iterations 5
DILUPBiCGStab:  Solving for Uy, Initial residual = 0.0364189, Final residual = 1.59054e-09, No Iterations 5
DILUPBiCGStab:  Solving for Uz, Initial residual = 0.0633456, Final residual = 5.55332e-09, No Iterations 5
linear solve U 17369
DICPCG:  Solving for p, Initial residual = 0.0251871, Final residual = 9.60155e-05, No Iterations 31
linear solve p 15194
time step continuity errors : sum local = 9.55643e-08, global = 2.72644e-21, cumulative = -3.5363e-20
DICPCG:  Solving for p, Initial residual = 0.0187868, Final residual = 8.45803e-05, No Iterations 28
linear solve p 13830
time step continuity errors : sum local = 7.31368e-08, global = -2.21375e-20, cumulative = -5.75005e-20
ExecutionTime = 0.7 s  ClockTime = 1 s

Time = 0.007

Courant Number mean: 0.0375053 max: 0.24826
DILUPBiCGStab:  Solving for Ux, Initial residual = 0.0185326, Final residual = 5.57546e-10, No Iterations 5
DILUPBiCGStab:  Solving for Uy, Initial residual = 0.0289816, Final residual = 1.14365e-09, No Iterations 5
DILUPBiCGStab:  Solving for Uz, Initial residual = 0.0524674, Final residual = 3.66762e-09, No Iterations 5
linear solve U 17374
DICPCG:  Solving for p, Initial residual = 0.0196379, Final residual = 8.25695e-05, No Iterations 29
linear solve p 14321
time step continuity errors : sum local = 8.24335e-08, global = 9.01446e-21, cumulative = -4.84861e-20
DICPCG:  Solving for p, Initial residual = 0.014751, Final residual = 9.37904e-05, No Iterations 27
linear solve p 13326
time step continuity errors : sum local = 8.33876e-08, global = -1.56681e-20, cumulative = -6.41542e-20
ExecutionTime = 0.76 s  ClockTime = 1 s

Time = 0.008

Courant Number mean: 0.0393977 max: 0.251424
DILUPBiCGStab:  Solving for Ux, Initial residual = 0.0151093, Final residual = 3.45597e-10, No Iterations 5
DILUPBiCGStab:  Solving for Uy, Initial residual = 0.0238567, Final residual = 8.32785e-10, No Iterations 5
DILUPBiCGStab:  Solving for Uz, Initial residual = 0.0442623, Final residual = 2.36e-09, No Iterations 5
linear solve U 17611
DICPCG:  Solving for p, Initial residual = 0.0157817, Final residual = 9.1007e-05, No Iterations 28
linear solve p 13802
time step continuity errors : sum local = 9.12859e-08, global = 1.68616e-21, cumulative = -6.2468e-20
DICPCG:  Solving for p, Initial residual = 0.01194, Final residual = 8.33739e-05, No Iterations 27
linear solve p 13672
time step continuity errors : sum local = 7.87189e-08, global = -3.45321e-20, cumulative = -9.70001e-20
ExecutionTime = 0.81 s  ClockTime = 1 s

Time = 0.009

Courant Number mean: 0.0410399 max: 0.253855
DILUPBiCGStab:  Solving for Ux, Initial residual = 0.0126597, Final residual = 2.44319e-10, No Iterations 5
DILUPBiCGStab:  Solving for Uy, Initial residual = 0.020112, Final residual = 6.24524e-10, No Iterations 5
DILUPBiCGStab:  Solving for Uz, Initial residual = 0.0380246, Final residual = 1.58976e-09, No Iterations 5
linear solve U 17326
DICPCG:  Solving for p, Initial residual = 0.0131403, Final residual = 8.32597e-05, No Iterations 28
linear solve p 13801
time step continuity errors : sum local = 8.63285e-08, global = -1.04849e-20, cumulative = -1.07485e-19
DICPCG:  Solving for p, Initial residual = 0.00998308, Final residual = 7.7673e-05, No Iterations 27
linear solve p 13292
time step continuity errors : sum local = 7.67197e-08, global = -3.47188e-21, cumulative = -1.10957e-19
ExecutionTime = 0.86 s  ClockTime = 1 s

Time = 0.01

Courant Number mean: 0.0424712 max: 0.255787
DILUPBiCGStab:  Solving for Ux, Initial residual = 0.0107861, Final residual = 1.85989e-10, No Iterations 5
DILUPBiCGStab:  Solving for Uy, Initial residual = 0.017253, Final residual = 4.82299e-10, No Iterations 5
DILUPBiCGStab:  Solving for Uz, Initial residual = 0.0330901, Final residual = 1.10446e-09, No Iterations 5
linear solve U 17377
DICPCG:  Solving for p, Initial residual = 0.011118, Final residual = 9.69027e-05, No Iterations 27
linear solve p 13326
time step continuity errors : sum local = 9.80929e-08, global = -2.19556e-20, cumulative = -1.32913e-19
DICPCG:  Solving for p, Initial residual = 0.00848992, Final residual = 9.57865e-05, No Iterations 26
linear solve p 12890
time step continuity errors : sum local = 9.2802e-08, global = 8.96519e-21, cumulative = -1.23947e-19
ExecutionTime = 0.92 s  ClockTime = 1 s

End

