/*---------------------------------------------------------------------------*\
  =========                 |
  \\      /  F ield         | OpenFOAM: The Open Source CFD Toolbox
   \\    /   O peration     | Website:  https://openfoam.org
    \\  /    A nd           | Version:  8
     \\/     M anipulation  |
\*---------------------------------------------------------------------------*/
Build  : 8-ef60d22ea792
Exec   : icoFoam
Date   : Jul 28 2021
Time   : 21:56:15
Host   : "uc2n441.localdomain"
PID    : 3215203
I/O    : uncollated
Case   : /pfs/data5/home/kit/scc/nq7776/code/OBR/lidDrivenCavity3D/Variation_mesh/5/Variation_matrix_solver/IR_NoPrecond_OMP/base
nProcs : 1
sigFpe : Enabling floating point exception trapping (FOAM_SIGFPE).
fileModificationChecking : Monitoring run-time modified files using timeStampMaster (fileModificationSkew 10)
allowSystemOperations : Allowing user-supplied system call operations

// * * * * * * * * * * * * * * * * * * * * * * * * * * * * * * * * * * * * * //
Create time

Create mesh for time = 0

Reading transportProperties

Reading field p

Reading field U

Reading/calculating face flux field phi


Starting time loop

Time = 0.001

Courant Number mean: 0 max: 0
DILUPBiCGStab:  Solving for Ux, Initial residual = 1, Final residual = 8.38041e-30, No Iterations 5
DILUPBiCGStab:  Solving for Uy:  solution singularity
DILUPBiCGStab:  Solving for Uz:  solution singularity
linear solve U 153
[OGL LOG] init_host_sparsity_pattern : 0 ms
[OGL LOG] matrix not stored update host matrix
[OGL LOG] update_host_mtx : 0 ms
[OGL LOG] matrix is not yet sorted, compute sorting idxs
[OGL LOG] compute_sort : 0 ms
[OGL LOG] matrix is not yet sorted, sorting host matrix
[OGL LOG] sort_host_mtx_sparsity_pattern : 0 ms
[OGL LOG] sort_host_mtx : 0 ms
[OGL LOG] init_preconditioner : 0 ms
[OGL LOG] solve : 2 ms
noneompGKOIR:  Solving for p, Initial residual = 1, Final residual = 1.24903e-06, No Iterations 3
linear solve p 5241
time step continuity errors : sum local = 2.3752e-10, global = -2.11024e-21, cumulative = -2.11024e-21
[OGL LOG] init_host_sparsity_pattern : 0 ms
[OGL LOG] matrix not stored update host matrix
[OGL LOG] update_host_mtx : 0 ms
[OGL LOG] matrix is not yet sorted, sorting host matrix
[OGL LOG] sort_host_mtx_sparsity_pattern : 0 ms
[OGL LOG] sort_host_mtx : 0 ms
[OGL LOG] init_preconditioner : 0 ms
[OGL LOG] solve : 1 ms
noneompGKOIR:  Solving for p, Initial residual = 0.0544902, Final residual = 6.3455e-06, No Iterations 2
linear solve p 1684
time step continuity errors : sum local = 3.47753e-09, global = 5.12697e-22, cumulative = -1.59754e-21
ExecutionTime = 0.06 s  ClockTime = 1 s

Time = 0.002

Courant Number mean: 0.000593121 max: 0.00137347
DILUPBiCGStab:  Solving for Ux, Initial residual = 0.290546, Final residual = 1.32908e-30, No Iterations 5
DILUPBiCGStab:  Solving for Uy, Initial residual = 0.317549, Final residual = 1.13414e-30, No Iterations 5
DILUPBiCGStab:  Solving for Uz, Initial residual = 0.318199, Final residual = 2.80691e-30, No Iterations 5
linear solve U 103
[OGL LOG] init_host_sparsity_pattern : 0 ms
[OGL LOG] matrix not stored update host matrix
[OGL LOG] update_host_mtx : 0 ms
[OGL LOG] matrix is not yet sorted, sorting host matrix
[OGL LOG] sort_host_mtx_sparsity_pattern : 0 ms
[OGL LOG] sort_host_mtx : 0 ms
[OGL LOG] init_preconditioner : 0 ms
[OGL LOG] solve : 1 ms
noneompGKOIR:  Solving for p, Initial residual = 0.110396, Final residual = 7.87663e-06, No Iterations 2
linear solve p 1676
time step continuity errors : sum local = 3.15612e-09, global = 2.95523e-21, cumulative = 1.35769e-21
[OGL LOG] init_host_sparsity_pattern : 0 ms
[OGL LOG] matrix not stored update host matrix
[OGL LOG] update_host_mtx : 0 ms
[OGL LOG] matrix is not yet sorted, sorting host matrix
[OGL LOG] sort_host_mtx_sparsity_pattern : 0 ms
[OGL LOG] sort_host_mtx : 0 ms
[OGL LOG] init_preconditioner : 0 ms
[OGL LOG] solve : 0 ms
noneompGKOIR:  Solving for p, Initial residual = 0.00288571, Final residual = 3.19216e-05, No Iterations 1
linear solve p 799
time step continuity errors : sum local = 1.75691e-08, global = -1.99444e-21, cumulative = -6.36748e-22
ExecutionTime = 0.07 s  ClockTime = 1 s

Time = 0.003

Courant Number mean: 0.00113041 max: 0.00263299
DILUPBiCGStab:  Solving for Ux, Initial residual = 0.161938, Final residual = 7.38145e-31, No Iterations 5
DILUPBiCGStab:  Solving for Uy, Initial residual = 0.186585, Final residual = 6.79973e-31, No Iterations 5
DILUPBiCGStab:  Solving for Uz, Initial residual = 0.22873, Final residual = 1.63848e-30, No Iterations 5
linear solve U 128
[OGL LOG] init_host_sparsity_pattern : 0 ms
[OGL LOG] matrix not stored update host matrix
[OGL LOG] update_host_mtx : 0 ms
[OGL LOG] matrix is not yet sorted, sorting host matrix
[OGL LOG] sort_host_mtx_sparsity_pattern : 0 ms
[OGL LOG] sort_host_mtx : 0 ms
[OGL LOG] init_preconditioner : 0 ms
[OGL LOG] solve : 1 ms
noneompGKOIR:  Solving for p, Initial residual = 0.0561942, Final residual = 3.48368e-06, No Iterations 2
linear solve p 1751
time step continuity errors : sum local = 1.65936e-09, global = -6.54181e-21, cumulative = -7.17856e-21
[OGL LOG] init_host_sparsity_pattern : 0 ms
[OGL LOG] matrix not stored update host matrix
[OGL LOG] update_host_mtx : 0 ms
[OGL LOG] matrix is not yet sorted, sorting host matrix
[OGL LOG] sort_host_mtx_sparsity_pattern : 0 ms
[OGL LOG] sort_host_mtx : 0 ms
[OGL LOG] init_preconditioner : 0 ms
[OGL LOG] solve : 0 ms
noneompGKOIR:  Solving for p, Initial residual = 0.00152657, Final residual = 1.7347e-05, No Iterations 1
linear solve p 789
time step continuity errors : sum local = 1.19207e-08, global = 4.21831e-21, cumulative = -2.96025e-21
ExecutionTime = 0.08 s  ClockTime = 1 s

Time = 0.004

Courant Number mean: 0.00161821 max: 0.00379119
DILUPBiCGStab:  Solving for Ux, Initial residual = 0.108864, Final residual = 5.01541e-31, No Iterations 5
DILUPBiCGStab:  Solving for Uy, Initial residual = 0.129115, Final residual = 4.60891e-31, No Iterations 5
DILUPBiCGStab:  Solving for Uz, Initial residual = 0.172632, Final residual = 1.02463e-30, No Iterations 5
linear solve U 102
[OGL LOG] init_host_sparsity_pattern : 0 ms
[OGL LOG] matrix not stored update host matrix
[OGL LOG] update_host_mtx : 0 ms
[OGL LOG] matrix is not yet sorted, sorting host matrix
[OGL LOG] sort_host_mtx_sparsity_pattern : 0 ms
[OGL LOG] sort_host_mtx : 0 ms
[OGL LOG] init_preconditioner : 0 ms
[OGL LOG] solve : 1 ms
noneompGKOIR:  Solving for p, Initial residual = 0.0347112, Final residual = 2.33246e-06, No Iterations 2
linear solve p 1577
time step continuity errors : sum local = 1.2261e-09, global = 5.38365e-21, cumulative = 2.42341e-21
[OGL LOG] init_host_sparsity_pattern : 0 ms
[OGL LOG] matrix not stored update host matrix
[OGL LOG] update_host_mtx : 0 ms
[OGL LOG] matrix is not yet sorted, sorting host matrix
[OGL LOG] sort_host_mtx_sparsity_pattern : 0 ms
[OGL LOG] sort_host_mtx : 0 ms
[OGL LOG] init_preconditioner : 0 ms
[OGL LOG] solve : 0 ms
noneompGKOIR:  Solving for p, Initial residual = 0.00101171, Final residual = 1.10737e-05, No Iterations 1
linear solve p 834
time step continuity errors : sum local = 9.74598e-09, global = 2.79122e-21, cumulative = 5.21462e-21
ExecutionTime = 0.09 s  ClockTime = 1 s

Time = 0.005

Courant Number mean: 0.00206191 max: 0.00485793
DILUPBiCGStab:  Solving for Ux, Initial residual = 0.0800557, Final residual = 3.7325e-31, No Iterations 5
DILUPBiCGStab:  Solving for Uy, Initial residual = 0.0967067, Final residual = 3.34171e-31, No Iterations 5
DILUPBiCGStab:  Solving for Uz, Initial residual = 0.140219, Final residual = 7.18631e-31, No Iterations 5
linear solve U 97
[OGL LOG] init_host_sparsity_pattern : 0 ms
[OGL LOG] matrix not stored update host matrix
[OGL LOG] update_host_mtx : 0 ms
[OGL LOG] matrix is not yet sorted, sorting host matrix
[OGL LOG] sort_host_mtx_sparsity_pattern : 0 ms
[OGL LOG] sort_host_mtx : 0 ms
[OGL LOG] init_preconditioner : 0 ms
[OGL LOG] solve : 1 ms
noneompGKOIR:  Solving for p, Initial residual = 0.02358, Final residual = 2.08812e-06, No Iterations 2
linear solve p 1545
time step continuity errors : sum local = 1.1293e-09, global = 1.76376e-21, cumulative = 6.97838e-21
[OGL LOG] init_host_sparsity_pattern : 0 ms
[OGL LOG] matrix not stored update host matrix
[OGL LOG] update_host_mtx : 0 ms
[OGL LOG] matrix is not yet sorted, sorting host matrix
[OGL LOG] sort_host_mtx_sparsity_pattern : 0 ms
[OGL LOG] sort_host_mtx : 0 ms
[OGL LOG] init_preconditioner : 0 ms
[OGL LOG] solve : 0 ms
noneompGKOIR:  Solving for p, Initial residual = 0.000759972, Final residual = 6.77145e-06, No Iterations 1
linear solve p 1098
time step continuity errors : sum local = 3.7598e-09, global = -3.50423e-20, cumulative = -2.80639e-20
ExecutionTime = 0.1 s  ClockTime = 1 s

Time = 0.006

Courant Number mean: 0.00246619 max: 0.00584193
DILUPBiCGStab:  Solving for Ux, Initial residual = 0.0620479, Final residual = 2.9207e-31, No Iterations 5
DILUPBiCGStab:  Solving for Uy, Initial residual = 0.075971, Final residual = 2.5461e-31, No Iterations 5
DILUPBiCGStab:  Solving for Uz, Initial residual = 0.116965, Final residual = 6.15998e-31, No Iterations 5
linear solve U 97
[OGL LOG] init_host_sparsity_pattern : 0 ms
[OGL LOG] matrix not stored update host matrix
[OGL LOG] update_host_mtx : 0 ms
[OGL LOG] matrix is not yet sorted, sorting host matrix
[OGL LOG] sort_host_mtx_sparsity_pattern : 0 ms
[OGL LOG] sort_host_mtx : 0 ms
[OGL LOG] init_preconditioner : 0 ms
[OGL LOG] solve : 1 ms
noneompGKOIR:  Solving for p, Initial residual = 0.0172336, Final residual = 1.44047e-06, No Iterations 2
linear solve p 1607
time step continuity errors : sum local = 8.12347e-10, global = -1.39128e-20, cumulative = -4.19767e-20
[OGL LOG] init_host_sparsity_pattern : 0 ms
[OGL LOG] matrix not stored update host matrix
[OGL LOG] update_host_mtx : 0 ms
[OGL LOG] matrix is not yet sorted, sorting host matrix
[OGL LOG] sort_host_mtx_sparsity_pattern : 0 ms
[OGL LOG] sort_host_mtx : 0 ms
[OGL LOG] init_preconditioner : 0 ms
[OGL LOG] solve : 0 ms
noneompGKOIR:  Solving for p, Initial residual = 0.000606396, Final residual = 5.25811e-06, No Iterations 1
linear solve p 1117
time step continuity errors : sum local = 2.95865e-09, global = -7.14201e-21, cumulative = -4.91187e-20
ExecutionTime = 0.12 s  ClockTime = 1 s

Time = 0.007

Courant Number mean: 0.00283513 max: 0.00675068
DILUPBiCGStab:  Solving for Ux, Initial residual = 0.0497732, Final residual = 2.35948e-31, No Iterations 5
DILUPBiCGStab:  Solving for Uy, Initial residual = 0.0616441, Final residual = 2.02569e-31, No Iterations 5
DILUPBiCGStab:  Solving for Uz, Initial residual = 0.0993504, Final residual = 6.13735e-31, No Iterations 5
linear solve U 104
[OGL LOG] init_host_sparsity_pattern : 0 ms
[OGL LOG] matrix not stored update host matrix
[OGL LOG] update_host_mtx : 0 ms
[OGL LOG] matrix is not yet sorted, sorting host matrix
[OGL LOG] sort_host_mtx_sparsity_pattern : 0 ms
[OGL LOG] sort_host_mtx : 0 ms
[OGL LOG] init_preconditioner : 0 ms
[OGL LOG] solve : 1 ms
noneompGKOIR:  Solving for p, Initial residual = 0.0132642, Final residual = 1.16979e-06, No Iterations 2
linear solve p 1580
time step continuity errors : sum local = 6.86264e-10, global = -9.6837e-22, cumulative = -5.0087e-20
[OGL LOG] init_host_sparsity_pattern : 0 ms
[OGL LOG] matrix not stored update host matrix
[OGL LOG] update_host_mtx : 0 ms
[OGL LOG] matrix is not yet sorted, sorting host matrix
[OGL LOG] sort_host_mtx_sparsity_pattern : 0 ms
[OGL LOG] sort_host_mtx : 0 ms
[OGL LOG] init_preconditioner : 0 ms
[OGL LOG] solve : 0 ms
noneompGKOIR:  Solving for p, Initial residual = 0.000504807, Final residual = 3.76673e-06, No Iterations 1
linear solve p 1181
time step continuity errors : sum local = 2.23913e-09, global = 2.29142e-20, cumulative = -2.71728e-20
ExecutionTime = 0.13 s  ClockTime = 1 s

Time = 0.008

Courant Number mean: 0.00317231 max: 0.00759081
DILUPBiCGStab:  Solving for Ux, Initial residual = 0.0409091, Final residual = 1.957e-31, No Iterations 5
DILUPBiCGStab:  Solving for Uy, Initial residual = 0.0512028, Final residual = 1.67005e-31, No Iterations 5
DILUPBiCGStab:  Solving for Uz, Initial residual = 0.0860619, Final residual = 6.22808e-31, No Iterations 5
linear solve U 103
[OGL LOG] init_host_sparsity_pattern : 0 ms
[OGL LOG] matrix not stored update host matrix
[OGL LOG] update_host_mtx : 0 ms
[OGL LOG] matrix is not yet sorted, sorting host matrix
[OGL LOG] sort_host_mtx_sparsity_pattern : 0 ms
[OGL LOG] sort_host_mtx : 0 ms
[OGL LOG] init_preconditioner : 0 ms
[OGL LOG] solve : 1 ms
noneompGKOIR:  Solving for p, Initial residual = 0.0105947, Final residual = 8.63064e-07, No Iterations 2
linear solve p 1633
time step continuity errors : sum local = 4.98725e-10, global = -2.26535e-20, cumulative = -4.98263e-20
[OGL LOG] init_host_sparsity_pattern : 0 ms
[OGL LOG] matrix not stored update host matrix
[OGL LOG] update_host_mtx : 0 ms
[OGL LOG] matrix is not yet sorted, sorting host matrix
[OGL LOG] sort_host_mtx_sparsity_pattern : 0 ms
[OGL LOG] sort_host_mtx : 0 ms
[OGL LOG] init_preconditioner : 0 ms
[OGL LOG] solve : 0 ms
noneompGKOIR:  Solving for p, Initial residual = 0.000450516, Final residual = 3.79778e-06, No Iterations 1
linear solve p 1145
time step continuity errors : sum local = 2.29648e-09, global = 2.80034e-20, cumulative = -2.1823e-20
ExecutionTime = 0.14 s  ClockTime = 1 s

Time = 0.009

Courant Number mean: 0.00348091 max: 0.00836826
DILUPBiCGStab:  Solving for Ux, Initial residual = 0.0342358, Final residual = 1.65779e-31, No Iterations 5
DILUPBiCGStab:  Solving for Uy, Initial residual = 0.0432921, Final residual = 1.40352e-31, No Iterations 5
DILUPBiCGStab:  Solving for Uz, Initial residual = 0.0759451, Final residual = 5.87389e-31, No Iterations 5
linear solve U 98
[OGL LOG] init_host_sparsity_pattern : 0 ms
[OGL LOG] matrix not stored update host matrix
[OGL LOG] update_host_mtx : 0 ms
[OGL LOG] matrix is not yet sorted, sorting host matrix
[OGL LOG] sort_host_mtx_sparsity_pattern : 0 ms
[OGL LOG] sort_host_mtx : 0 ms
[OGL LOG] init_preconditioner : 0 ms
[OGL LOG] solve : 0 ms
noneompGKOIR:  Solving for p, Initial residual = 0.00871016, Final residual = 6.12717e-05, No Iterations 1
linear solve p 1126
time step continuity errors : sum local = 3.74579e-08, global = -1.68116e-20, cumulative = -3.86346e-20
[OGL LOG] init_host_sparsity_pattern : 0 ms
[OGL LOG] matrix not stored update host matrix
[OGL LOG] update_host_mtx : 0 ms
[OGL LOG] matrix is not yet sorted, sorting host matrix
[OGL LOG] sort_host_mtx_sparsity_pattern : 0 ms
[OGL LOG] sort_host_mtx : 0 ms
[OGL LOG] init_preconditioner : 0 ms
[OGL LOG] solve : 0 ms
noneompGKOIR:  Solving for p, Initial residual = 0.000418483, Final residual = 4.08585e-06, No Iterations 1
linear solve p 1087
time step continuity errors : sum local = 2.46788e-09, global = -1.58214e-20, cumulative = -5.44559e-20
ExecutionTime = 0.15 s  ClockTime = 1 s

Time = 0.01

Courant Number mean: 0.00376371 max: 0.00908822
DILUPBiCGStab:  Solving for Ux, Initial residual = 0.0290533, Final residual = 1.43129e-31, No Iterations 5
DILUPBiCGStab:  Solving for Uy, Initial residual = 0.0371178, Final residual = 1.19413e-31, No Iterations 5
DILUPBiCGStab:  Solving for Uz, Initial residual = 0.0678653, Final residual = 5.09895e-31, No Iterations 5
linear solve U 98
[OGL LOG] init_host_sparsity_pattern : 0 ms
[OGL LOG] matrix not stored update host matrix
[OGL LOG] update_host_mtx : 0 ms
[OGL LOG] matrix is not yet sorted, sorting host matrix
[OGL LOG] sort_host_mtx_sparsity_pattern : 0 ms
[OGL LOG] sort_host_mtx : 0 ms
[OGL LOG] init_preconditioner : 0 ms
[OGL LOG] solve : 0 ms
noneompGKOIR:  Solving for p, Initial residual = 0.007326, Final residual = 5.67047e-05, No Iterations 1
linear solve p 1138
time step continuity errors : sum local = 3.5089e-08, global = -3.03832e-20, cumulative = -8.48391e-20
[OGL LOG] init_host_sparsity_pattern : 0 ms
[OGL LOG] matrix not stored update host matrix
[OGL LOG] update_host_mtx : 0 ms
[OGL LOG] matrix is not yet sorted, sorting host matrix
[OGL LOG] sort_host_mtx_sparsity_pattern : 0 ms
[OGL LOG] sort_host_mtx : 0 ms
[OGL LOG] init_preconditioner : 0 ms
[OGL LOG] solve : 0 ms
noneompGKOIR:  Solving for p, Initial residual = 0.00038178, Final residual = 3.72903e-06, No Iterations 1
linear solve p 1101
time step continuity errors : sum local = 2.27953e-09, global = 8.94348e-21, cumulative = -7.58956e-20
ExecutionTime = 0.17 s  ClockTime = 1 s

End

