/*---------------------------------------------------------------------------*\
  =========                 |
  \\      /  F ield         | OpenFOAM: The Open Source CFD Toolbox
   \\    /   O peration     | Website:  https://openfoam.org
    \\  /    A nd           | Version:  8
     \\/     M anipulation  |
\*---------------------------------------------------------------------------*/
Build  : 8-ef60d22ea792
Exec   : icoFoam
Date   : Jul 29 2021
Time   : 08:19:53
Host   : "nla-gpu2.ianm.kit.edu"
PID    : 1979579
I/O    : uncollated
Case   : /home/greole/code/OBR/lidDrivenCavity3D/Variation_mesh/70/Variation_matrix_solver/CG_BJ_HIP/base
nProcs : 1
sigFpe : Enabling floating point exception trapping (FOAM_SIGFPE).
fileModificationChecking : Monitoring run-time modified files using timeStampMaster (fileModificationSkew 10)
allowSystemOperations : Allowing user-supplied system call operations

// * * * * * * * * * * * * * * * * * * * * * * * * * * * * * * * * * * * * * //
Create time

Create mesh for time = 0

Reading transportProperties

Reading field p

Reading field U

Reading/calculating face flux field phi


Starting time loop

Time = 0.001

Courant Number mean: 0 max: 0
DILUPBiCGStab:  Solving for Ux, Initial residual = 1, Final residual = 0.00143011, No Iterations 5
DILUPBiCGStab:  Solving for Uy:  solution singularity
DILUPBiCGStab:  Solving for Uz:  solution singularity
linear solve U 138745
[OGL LOG] init_host_sparsity_pattern : 159 ms
[OGL LOG] matrix not stored update host matrix
[OGL LOG] update_host_mtx : 76 ms
[OGL LOG] matrix is not yet sorted, compute sorting idxs
[OGL LOG] compute_sort : 3262 ms
[OGL LOG] matrix is not yet sorted, sorting host matrix
[OGL LOG] sort_host_mtx_sparsity_pattern : 66 ms
[OGL LOG] sort_host_mtx : 41 ms
[OGL LOG] init_preconditioner : 280 ms
 CG create  precond 
[OGL LOG] solve : 212 ms
BJhipGKOCG:  Solving for p, Initial residual = 1, Final residual = 9.95369e-05, No Iterations 464
linear solve p 4550388
time step continuity errors : sum local = 5.85427e-08, global = 4.25781e-21, cumulative = 4.25781e-21
[OGL LOG] init_host_sparsity_pattern : 153 ms
[OGL LOG] matrix not stored update host matrix
[OGL LOG] update_host_mtx : 75 ms
[OGL LOG] matrix is not yet sorted, sorting host matrix
[OGL LOG] sort_host_mtx_sparsity_pattern : 61 ms
[OGL LOG] sort_host_mtx : 36 ms
[OGL LOG] init_preconditioner : 0 ms
 CG create  precond 
[OGL LOG] solve : 166 ms
BJhipGKOCG:  Solving for p, Initial residual = 0.723816, Final residual = 9.65588e-05, No Iterations 447
linear solve p 509749
time step continuity errors : sum local = 7.54958e-08, global = -5.03395e-21, cumulative = -7.76141e-22
ExecutionTime = 7.18 s  ClockTime = 7 s

Time = 0.002

Courant Number mean: 0.0394021 max: 0.518352
DILUPBiCGStab:  Solving for Ux, Initial residual = 0.151291, Final residual = 0.000459808, No Iterations 5
DILUPBiCGStab:  Solving for Uy, Initial residual = 0.361768, Final residual = 0.000929263, No Iterations 5
DILUPBiCGStab:  Solving for Uz, Initial residual = 0.984653, Final residual = 0.0030302, No Iterations 5
linear solve U 264753
[OGL LOG] init_host_sparsity_pattern : 153 ms
[OGL LOG] matrix not stored update host matrix
[OGL LOG] update_host_mtx : 83 ms
[OGL LOG] matrix is not yet sorted, sorting host matrix
[OGL LOG] sort_host_mtx_sparsity_pattern : 61 ms
[OGL LOG] sort_host_mtx : 36 ms
[OGL LOG] init_preconditioner : 0 ms
 CG create  precond 
[OGL LOG] solve : 165 ms
BJhipGKOCG:  Solving for p, Initial residual = 0.674247, Final residual = 9.44653e-05, No Iterations 441
linear solve p 516345
time step continuity errors : sum local = 8.08239e-08, global = -5.82749e-21, cumulative = -6.60363e-21
[OGL LOG] init_host_sparsity_pattern : 151 ms
[OGL LOG] matrix not stored update host matrix
[OGL LOG] update_host_mtx : 76 ms
[OGL LOG] matrix is not yet sorted, sorting host matrix
[OGL LOG] sort_host_mtx_sparsity_pattern : 60 ms
[OGL LOG] sort_host_mtx : 38 ms
[OGL LOG] init_preconditioner : 0 ms
 CG create  precond 
[OGL LOG] solve : 164 ms
BJhipGKOCG:  Solving for p, Initial residual = 0.601573, Final residual = 9.67927e-05, No Iterations 438
linear solve p 506202
time step continuity errors : sum local = 8.46901e-08, global = 5.64161e-21, cumulative = -9.62014e-22
ExecutionTime = 8.87 s  ClockTime = 8 s

Time = 0.003

Courant Number mean: 0.059136 max: 0.61629
DILUPBiCGStab:  Solving for Ux, Initial residual = 0.0520837, Final residual = 0.000108122, No Iterations 5
DILUPBiCGStab:  Solving for Uy, Initial residual = 0.118686, Final residual = 0.000223833, No Iterations 5
DILUPBiCGStab:  Solving for Uz, Initial residual = 0.504056, Final residual = 0.00145515, No Iterations 5
linear solve U 266072
[OGL LOG] init_host_sparsity_pattern : 151 ms
[OGL LOG] matrix not stored update host matrix
[OGL LOG] update_host_mtx : 82 ms
[OGL LOG] matrix is not yet sorted, sorting host matrix
[OGL LOG] sort_host_mtx_sparsity_pattern : 61 ms
[OGL LOG] sort_host_mtx : 38 ms
[OGL LOG] init_preconditioner : 0 ms
 CG create  precond 
[OGL LOG] solve : 163 ms
BJhipGKOCG:  Solving for p, Initial residual = 0.609231, Final residual = 9.07907e-05, No Iterations 436
linear solve p 512403
time step continuity errors : sum local = 5.56617e-08, global = -7.03244e-21, cumulative = -7.99446e-21
[OGL LOG] init_host_sparsity_pattern : 151 ms
[OGL LOG] matrix not stored update host matrix
[OGL LOG] update_host_mtx : 76 ms
[OGL LOG] matrix is not yet sorted, sorting host matrix
[OGL LOG] sort_host_mtx_sparsity_pattern : 64 ms
[OGL LOG] sort_host_mtx : 38 ms
[OGL LOG] init_preconditioner : 0 ms
 CG create  precond 
[OGL LOG] solve : 163 ms
BJhipGKOCG:  Solving for p, Initial residual = 0.557347, Final residual = 9.99225e-05, No Iterations 434
linear solve p 509180
time step continuity errors : sum local = 5.94779e-08, global = 6.90026e-21, cumulative = -1.0942e-21
ExecutionTime = 10.56 s  ClockTime = 10 s

Time = 0.004

Courant Number mean: 0.0695971 max: 0.629497
DILUPBiCGStab:  Solving for Ux, Initial residual = 0.0286858, Final residual = 5.77619e-05, No Iterations 5
DILUPBiCGStab:  Solving for Uy, Initial residual = 0.0790528, Final residual = 0.000132055, No Iterations 5
DILUPBiCGStab:  Solving for Uz, Initial residual = 0.26212, Final residual = 0.000583209, No Iterations 5
linear solve U 266340
[OGL LOG] init_host_sparsity_pattern : 150 ms
[OGL LOG] matrix not stored update host matrix
[OGL LOG] update_host_mtx : 75 ms
[OGL LOG] matrix is not yet sorted, sorting host matrix
[OGL LOG] sort_host_mtx_sparsity_pattern : 60 ms
[OGL LOG] sort_host_mtx : 39 ms
[OGL LOG] init_preconditioner : 0 ms
 CG create  precond 
[OGL LOG] solve : 159 ms
BJhipGKOCG:  Solving for p, Initial residual = 0.385806, Final residual = 9.527e-05, No Iterations 428
linear solve p 500639
time step continuity errors : sum local = 5.07918e-08, global = -2.05391e-21, cumulative = -3.14812e-21
[OGL LOG] init_host_sparsity_pattern : 152 ms
[OGL LOG] matrix not stored update host matrix
[OGL LOG] update_host_mtx : 82 ms
[OGL LOG] matrix is not yet sorted, sorting host matrix
[OGL LOG] sort_host_mtx_sparsity_pattern : 63 ms
[OGL LOG] sort_host_mtx : 38 ms
[OGL LOG] init_preconditioner : 0 ms
 CG create  precond 
[OGL LOG] solve : 162 ms
BJhipGKOCG:  Solving for p, Initial residual = 0.325481, Final residual = 9.57239e-05, No Iterations 426
linear solve p 514378
time step continuity errors : sum local = 5.16666e-08, global = 1.67203e-20, cumulative = 1.35722e-20
ExecutionTime = 12.25 s  ClockTime = 11 s

Time = 0.005

Courant Number mean: 0.0778345 max: 0.639339
DILUPBiCGStab:  Solving for Ux, Initial residual = 0.0206103, Final residual = 3.14e-05, No Iterations 5
DILUPBiCGStab:  Solving for Uy, Initial residual = 0.0456785, Final residual = 6.1053e-05, No Iterations 5
DILUPBiCGStab:  Solving for Uz, Initial residual = 0.0901728, Final residual = 0.000191472, No Iterations 5
linear solve U 266062
[OGL LOG] init_host_sparsity_pattern : 150 ms
[OGL LOG] matrix not stored update host matrix
[OGL LOG] update_host_mtx : 82 ms
[OGL LOG] matrix is not yet sorted, sorting host matrix
[OGL LOG] sort_host_mtx_sparsity_pattern : 60 ms
[OGL LOG] sort_host_mtx : 37 ms
[OGL LOG] init_preconditioner : 0 ms
 CG create  precond 
[OGL LOG] solve : 147 ms
BJhipGKOCG:  Solving for p, Initial residual = 0.289544, Final residual = 9.81705e-05, No Iterations 397
linear solve p 494690
time step continuity errors : sum local = 4.36908e-08, global = 6.29404e-21, cumulative = 1.98662e-20
[OGL LOG] init_host_sparsity_pattern : 155 ms
[OGL LOG] matrix not stored update host matrix
[OGL LOG] update_host_mtx : 76 ms
[OGL LOG] matrix is not yet sorted, sorting host matrix
[OGL LOG] sort_host_mtx_sparsity_pattern : 60 ms
[OGL LOG] sort_host_mtx : 37 ms
[OGL LOG] init_preconditioner : 0 ms
 CG create  precond 
[OGL LOG] solve : 148 ms
BJhipGKOCG:  Solving for p, Initial residual = 0.247293, Final residual = 9.78366e-05, No Iterations 396
linear solve p 493014
time step continuity errors : sum local = 4.32057e-08, global = 1.96448e-20, cumulative = 3.9511e-20
ExecutionTime = 13.89 s  ClockTime = 13 s

Time = 0.006

Courant Number mean: 0.0841385 max: 0.645083
DILUPBiCGStab:  Solving for Ux, Initial residual = 0.014895, Final residual = 2.1975e-05, No Iterations 5
DILUPBiCGStab:  Solving for Uy, Initial residual = 0.0354636, Final residual = 3.66459e-05, No Iterations 5
DILUPBiCGStab:  Solving for Uz, Initial residual = 0.0796079, Final residual = 0.000157433, No Iterations 5
linear solve U 265042
[OGL LOG] init_host_sparsity_pattern : 155 ms
[OGL LOG] matrix not stored update host matrix
[OGL LOG] update_host_mtx : 81 ms
[OGL LOG] matrix is not yet sorted, sorting host matrix
[OGL LOG] sort_host_mtx_sparsity_pattern : 60 ms
[OGL LOG] sort_host_mtx : 37 ms
[OGL LOG] init_preconditioner : 0 ms
 CG create  precond 
[OGL LOG] solve : 74 ms
BJhipGKOCG:  Solving for p, Initial residual = 0.177452, Final residual = 9.27276e-05, No Iterations 197
linear solve p 424740
time step continuity errors : sum local = 4.77927e-08, global = -1.199e-20, cumulative = 2.7521e-20
[OGL LOG] init_host_sparsity_pattern : 153 ms
[OGL LOG] matrix not stored update host matrix
[OGL LOG] update_host_mtx : 76 ms
[OGL LOG] matrix is not yet sorted, sorting host matrix
[OGL LOG] sort_host_mtx_sparsity_pattern : 60 ms
[OGL LOG] sort_host_mtx : 38 ms
[OGL LOG] init_preconditioner : 0 ms
 CG create  precond 
[OGL LOG] solve : 73 ms
BJhipGKOCG:  Solving for p, Initial residual = 0.146803, Final residual = 8.94435e-05, No Iterations 195
linear solve p 416524
time step continuity errors : sum local = 4.11892e-08, global = -2.90656e-21, cumulative = 2.46145e-20
ExecutionTime = 15.26 s  ClockTime = 14 s

Time = 0.007

Courant Number mean: 0.0893567 max: 0.648975
DILUPBiCGStab:  Solving for Ux, Initial residual = 0.011884, Final residual = 1.23412e-05, No Iterations 5
DILUPBiCGStab:  Solving for Uy, Initial residual = 0.0272429, Final residual = 2.86798e-05, No Iterations 5
DILUPBiCGStab:  Solving for Uz, Initial residual = 0.049756, Final residual = 7.73909e-05, No Iterations 5
linear solve U 265839
[OGL LOG] init_host_sparsity_pattern : 150 ms
[OGL LOG] matrix not stored update host matrix
[OGL LOG] update_host_mtx : 82 ms
[OGL LOG] matrix is not yet sorted, sorting host matrix
[OGL LOG] sort_host_mtx_sparsity_pattern : 60 ms
[OGL LOG] sort_host_mtx : 38 ms
[OGL LOG] init_preconditioner : 0 ms
 CG create  precond 
[OGL LOG] solve : 71 ms
BJhipGKOCG:  Solving for p, Initial residual = 0.124037, Final residual = 9.60658e-05, No Iterations 194
linear solve p 418845
time step continuity errors : sum local = 3.99189e-08, global = -1.82953e-20, cumulative = 6.3192e-21
[OGL LOG] init_host_sparsity_pattern : 152 ms
[OGL LOG] matrix not stored update host matrix
[OGL LOG] update_host_mtx : 82 ms
[OGL LOG] matrix is not yet sorted, sorting host matrix
[OGL LOG] sort_host_mtx_sparsity_pattern : 62 ms
[OGL LOG] sort_host_mtx : 38 ms
[OGL LOG] init_preconditioner : 0 ms
 CG create  precond 
[OGL LOG] solve : 73 ms
BJhipGKOCG:  Solving for p, Initial residual = 0.103537, Final residual = 9.8538e-05, No Iterations 189
linear solve p 424345
time step continuity errors : sum local = 4.11592e-08, global = 2.63307e-21, cumulative = 8.95228e-21
ExecutionTime = 16.64 s  ClockTime = 15 s

Time = 0.008

Courant Number mean: 0.0937058 max: 0.652003
DILUPBiCGStab:  Solving for Ux, Initial residual = 0.00969377, Final residual = 1.01163e-05, No Iterations 5
DILUPBiCGStab:  Solving for Uy, Initial residual = 0.0223562, Final residual = 1.32891e-05, No Iterations 5
DILUPBiCGStab:  Solving for Uz, Initial residual = 0.0440588, Final residual = 5.64883e-05, No Iterations 5
linear solve U 265850
[OGL LOG] init_host_sparsity_pattern : 150 ms
[OGL LOG] matrix not stored update host matrix
[OGL LOG] update_host_mtx : 83 ms
[OGL LOG] matrix is not yet sorted, sorting host matrix
[OGL LOG] sort_host_mtx_sparsity_pattern : 60 ms
[OGL LOG] sort_host_mtx : 36 ms
[OGL LOG] init_preconditioner : 0 ms
 CG create  precond 
[OGL LOG] solve : 72 ms
BJhipGKOCG:  Solving for p, Initial residual = 0.0805663, Final residual = 9.98907e-05, No Iterations 189
linear solve p 419187
time step continuity errors : sum local = 4.89983e-08, global = -6.94888e-21, cumulative = 2.00339e-21
[OGL LOG] init_host_sparsity_pattern : 154 ms
[OGL LOG] matrix not stored update host matrix
[OGL LOG] update_host_mtx : 76 ms
[OGL LOG] matrix is not yet sorted, sorting host matrix
[OGL LOG] sort_host_mtx_sparsity_pattern : 62 ms
[OGL LOG] sort_host_mtx : 37 ms
[OGL LOG] init_preconditioner : 0 ms
 CG create  precond 
[OGL LOG] solve : 68 ms
BJhipGKOCG:  Solving for p, Initial residual = 0.0665251, Final residual = 9.93964e-05, No Iterations 183
linear solve p 414547
time step continuity errors : sum local = 4.35824e-08, global = 1.06262e-20, cumulative = 1.26296e-20
ExecutionTime = 18.02 s  ClockTime = 16 s

Time = 0.009

Courant Number mean: 0.0974484 max: 0.654263
DILUPBiCGStab:  Solving for Ux, Initial residual = 0.00810224, Final residual = 5.39981e-06, No Iterations 5
DILUPBiCGStab:  Solving for Uy, Initial residual = 0.0188558, Final residual = 1.31747e-05, No Iterations 5
DILUPBiCGStab:  Solving for Uz, Initial residual = 0.0361132, Final residual = 4.39439e-05, No Iterations 5
linear solve U 265738
[OGL LOG] init_host_sparsity_pattern : 154 ms
[OGL LOG] matrix not stored update host matrix
[OGL LOG] update_host_mtx : 82 ms
[OGL LOG] matrix is not yet sorted, sorting host matrix
[OGL LOG] sort_host_mtx_sparsity_pattern : 61 ms
[OGL LOG] sort_host_mtx : 37 ms
[OGL LOG] init_preconditioner : 0 ms
 CG create  precond 
[OGL LOG] solve : 70 ms
BJhipGKOCG:  Solving for p, Initial residual = 0.0584234, Final residual = 9.69119e-05, No Iterations 183
linear solve p 420113
time step continuity errors : sum local = 4.17354e-08, global = -7.44563e-21, cumulative = 5.18399e-21
[OGL LOG] init_host_sparsity_pattern : 151 ms
[OGL LOG] matrix not stored update host matrix
[OGL LOG] update_host_mtx : 81 ms
[OGL LOG] matrix is not yet sorted, sorting host matrix
[OGL LOG] sort_host_mtx_sparsity_pattern : 60 ms
[OGL LOG] sort_host_mtx : 38 ms
[OGL LOG] init_preconditioner : 0 ms
 CG create  precond 
[OGL LOG] solve : 69 ms
BJhipGKOCG:  Solving for p, Initial residual = 0.048739, Final residual = 9.36979e-05, No Iterations 181
linear solve p 416417
time step continuity errors : sum local = 3.7862e-08, global = -1.4028e-20, cumulative = -8.84398e-21
ExecutionTime = 19.38 s  ClockTime = 18 s

Time = 0.01

Courant Number mean: 0.100691 max: 0.656135
DILUPBiCGStab:  Solving for Ux, Initial residual = 0.0069496, Final residual = 4.37993e-06, No Iterations 5
DILUPBiCGStab:  Solving for Uy, Initial residual = 0.0160994, Final residual = 6.7309e-06, No Iterations 5
DILUPBiCGStab:  Solving for Uz, Initial residual = 0.0319673, Final residual = 3.22178e-05, No Iterations 5
linear solve U 267176
[OGL LOG] init_host_sparsity_pattern : 150 ms
[OGL LOG] matrix not stored update host matrix
[OGL LOG] update_host_mtx : 82 ms
[OGL LOG] matrix is not yet sorted, sorting host matrix
[OGL LOG] sort_host_mtx_sparsity_pattern : 60 ms
[OGL LOG] sort_host_mtx : 38 ms
[OGL LOG] init_preconditioner : 0 ms
 CG create  precond 
[OGL LOG] solve : 145 ms
BJhipGKOCG:  Solving for p, Initial residual = 0.0395101, Final residual = 9.13195e-05, No Iterations 389
linear solve p 493192
time step continuity errors : sum local = 3.65428e-08, global = 4.0453e-21, cumulative = -4.79868e-21
[OGL LOG] init_host_sparsity_pattern : 151 ms
[OGL LOG] matrix not stored update host matrix
[OGL LOG] update_host_mtx : 82 ms
[OGL LOG] matrix is not yet sorted, sorting host matrix
[OGL LOG] sort_host_mtx_sparsity_pattern : 60 ms
[OGL LOG] sort_host_mtx : 38 ms
[OGL LOG] init_preconditioner : 0 ms
 CG create  precond 
[OGL LOG] solve : 145 ms
BJhipGKOCG:  Solving for p, Initial residual = 0.0332935, Final residual = 9.02633e-05, No Iterations 388
linear solve p 493148
time step continuity errors : sum local = 3.61468e-08, global = -7.63364e-21, cumulative = -1.24323e-20
ExecutionTime = 21.01 s  ClockTime = 19 s

End

