/*---------------------------------------------------------------------------*\
  =========                 |
  \\      /  F ield         | OpenFOAM: The Open Source CFD Toolbox
   \\    /   O peration     | Website:  https://openfoam.org
    \\  /    A nd           | Version:  8
     \\/     M anipulation  |
\*---------------------------------------------------------------------------*/
Build  : 8-ef60d22ea792
Exec   : icoFoam
Date   : Jul 29 2021
Time   : 05:05:34
Host   : "nla-gpu2.ianm.kit.edu"
PID    : 1892270
I/O    : uncollated
Case   : /home/greole/code/OBR/lidDrivenCavity3D/Variation_mesh/100/Variation_matrix_solver/IR_NoPrecond_HIP/base
nProcs : 1
sigFpe : Enabling floating point exception trapping (FOAM_SIGFPE).
fileModificationChecking : Monitoring run-time modified files using timeStampMaster (fileModificationSkew 10)
allowSystemOperations : Allowing user-supplied system call operations

// * * * * * * * * * * * * * * * * * * * * * * * * * * * * * * * * * * * * * //
Create time

Create mesh for time = 0

Reading transportProperties

Reading field p

Reading field U

Reading/calculating face flux field phi


Starting time loop

Time = 0.001

Courant Number mean: 0 max: 0
DILUPBiCGStab:  Solving for Ux, Initial residual = 1, Final residual = 0.00717233, No Iterations 5
DILUPBiCGStab:  Solving for Uy:  solution singularity
DILUPBiCGStab:  Solving for Uz:  solution singularity
linear solve U 415288
[OGL LOG] init_host_sparsity_pattern : 461 ms
[OGL LOG] matrix not stored update host matrix
[OGL LOG] update_host_mtx : 224 ms
[OGL LOG] matrix is not yet sorted, compute sorting idxs
[OGL LOG] compute_sort : 9958 ms
[OGL LOG] matrix is not yet sorted, sorting host matrix
[OGL LOG] sort_host_mtx_sparsity_pattern : 203 ms
[OGL LOG] sort_host_mtx : 121 ms
[OGL LOG] init_preconditioner : 0 ms
[OGL LOG] solve : 468 ms
nonehipGKOIR:  Solving for p, Initial residual = 1, Final residual = 1.39582e-05, No Iterations 3
linear solve p 11928012
time step continuity errors : sum local = 8.02029e-09, global = 9.91349e-21, cumulative = 9.91349e-21
[OGL LOG] init_host_sparsity_pattern : 443 ms
[OGL LOG] matrix not stored update host matrix
[OGL LOG] update_host_mtx : 232 ms
[OGL LOG] matrix is not yet sorted, sorting host matrix
[OGL LOG] sort_host_mtx_sparsity_pattern : 197 ms
[OGL LOG] sort_host_mtx : 115 ms
[OGL LOG] init_preconditioner : 0 ms
[OGL LOG] solve : 439 ms
nonehipGKOIR:  Solving for p, Initial residual = 0.77731, Final residual = 7.50487e-06, No Iterations 3
linear solve p 1465542
time step continuity errors : sum local = 5.43994e-09, global = -4.64963e-21, cumulative = 5.26386e-21
ExecutionTime = 18.96 s  ClockTime = 18 s

Time = 0.002

Courant Number mean: 0.0560717 max: 0.805494
DILUPBiCGStab:  Solving for Ux, Initial residual = 0.138282, Final residual = 0.00319033, No Iterations 5
DILUPBiCGStab:  Solving for Uy, Initial residual = 0.43054, Final residual = 0.00909573, No Iterations 5
DILUPBiCGStab:  Solving for Uz, Initial residual = 0.9903, Final residual = 0.0225853, No Iterations 5
linear solve U 812213
[OGL LOG] init_host_sparsity_pattern : 443 ms
[OGL LOG] matrix not stored update host matrix
[OGL LOG] update_host_mtx : 221 ms
[OGL LOG] matrix is not yet sorted, sorting host matrix
[OGL LOG] sort_host_mtx_sparsity_pattern : 193 ms
[OGL LOG] sort_host_mtx : 119 ms
[OGL LOG] init_preconditioner : 0 ms
[OGL LOG] solve : 443 ms
nonehipGKOIR:  Solving for p, Initial residual = 0.799779, Final residual = 4.38721e-06, No Iterations 3
linear solve p 1458431
time step continuity errors : sum local = 4.50554e-09, global = -1.5111e-20, cumulative = -9.84712e-21
[OGL LOG] init_host_sparsity_pattern : 449 ms
[OGL LOG] matrix not stored update host matrix
[OGL LOG] update_host_mtx : 224 ms
[OGL LOG] matrix is not yet sorted, sorting host matrix
[OGL LOG] sort_host_mtx_sparsity_pattern : 183 ms
[OGL LOG] sort_host_mtx : 116 ms
[OGL LOG] init_preconditioner : 0 ms
[OGL LOG] solve : 441 ms
nonehipGKOIR:  Solving for p, Initial residual = 0.740733, Final residual = 3.77883e-06, No Iterations 3
linear solve p 1451353
time step continuity errors : sum local = 3.96117e-09, global = -1.66475e-21, cumulative = -1.15119e-20
ExecutionTime = 23.81 s  ClockTime = 22 s

Time = 0.003

Courant Number mean: 0.0852774 max: 0.943633
DILUPBiCGStab:  Solving for Ux, Initial residual = 0.0649256, Final residual = 0.00112816, No Iterations 5
DILUPBiCGStab:  Solving for Uy, Initial residual = 0.225973, Final residual = 0.0029656, No Iterations 5
DILUPBiCGStab:  Solving for Uz, Initial residual = 0.792328, Final residual = 0.0162195, No Iterations 5
linear solve U 814156
[OGL LOG] init_host_sparsity_pattern : 449 ms
[OGL LOG] matrix not stored update host matrix
[OGL LOG] update_host_mtx : 235 ms
[OGL LOG] matrix is not yet sorted, sorting host matrix
[OGL LOG] sort_host_mtx_sparsity_pattern : 187 ms
[OGL LOG] sort_host_mtx : 117 ms
[OGL LOG] init_preconditioner : 0 ms
[OGL LOG] solve : 458 ms
nonehipGKOIR:  Solving for p, Initial residual = 0.832938, Final residual = 3.4331e-06, No Iterations 3
linear solve p 1486341
time step continuity errors : sum local = 3.30257e-09, global = -7.54006e-21, cumulative = -1.90519e-20
[OGL LOG] init_host_sparsity_pattern : 440 ms
[OGL LOG] matrix not stored update host matrix
[OGL LOG] update_host_mtx : 223 ms
[OGL LOG] matrix is not yet sorted, sorting host matrix
[OGL LOG] sort_host_mtx_sparsity_pattern : 209 ms
[OGL LOG] sort_host_mtx : 119 ms
[OGL LOG] init_preconditioner : 0 ms
[OGL LOG] solve : 458 ms
nonehipGKOIR:  Solving for p, Initial residual = 0.802223, Final residual = 3.15914e-06, No Iterations 3
linear solve p 1488567
time step continuity errors : sum local = 2.96428e-09, global = 1.2237e-21, cumulative = -1.78282e-20
ExecutionTime = 28.77 s  ClockTime = 27 s

Time = 0.004

Courant Number mean: 0.098204 max: 0.926355
DILUPBiCGStab:  Solving for Ux, Initial residual = 0.038808, Final residual = 0.000835304, No Iterations 5
DILUPBiCGStab:  Solving for Uy, Initial residual = 0.168195, Final residual = 0.00318246, No Iterations 5
DILUPBiCGStab:  Solving for Uz, Initial residual = 0.628899, Final residual = 0.0109446, No Iterations 5
linear solve U 812025
[OGL LOG] init_host_sparsity_pattern : 444 ms
[OGL LOG] matrix not stored update host matrix
[OGL LOG] update_host_mtx : 221 ms
[OGL LOG] matrix is not yet sorted, sorting host matrix
[OGL LOG] sort_host_mtx_sparsity_pattern : 187 ms
[OGL LOG] sort_host_mtx : 118 ms
[OGL LOG] init_preconditioner : 0 ms
[OGL LOG] solve : 461 ms
nonehipGKOIR:  Solving for p, Initial residual = 0.749422, Final residual = 2.87407e-06, No Iterations 3
linear solve p 1470976
time step continuity errors : sum local = 2.54879e-09, global = -1.77109e-21, cumulative = -1.95993e-20
[OGL LOG] init_host_sparsity_pattern : 449 ms
[OGL LOG] matrix not stored update host matrix
[OGL LOG] update_host_mtx : 225 ms
[OGL LOG] matrix is not yet sorted, sorting host matrix
[OGL LOG] sort_host_mtx_sparsity_pattern : 210 ms
[OGL LOG] sort_host_mtx : 116 ms
[OGL LOG] init_preconditioner : 0 ms
[OGL LOG] solve : 459 ms
nonehipGKOIR:  Solving for p, Initial residual = 0.685077, Final residual = 2.41931e-06, No Iterations 3
linear solve p 1499925
time step continuity errors : sum local = 2.1846e-09, global = -9.58836e-21, cumulative = -2.91877e-20
ExecutionTime = 33.72 s  ClockTime = 31 s

Time = 0.005

Courant Number mean: 0.110594 max: 0.94457
DILUPBiCGStab:  Solving for Ux, Initial residual = 0.0305065, Final residual = 0.000612533, No Iterations 5
DILUPBiCGStab:  Solving for Uy, Initial residual = 0.0983162, Final residual = 0.00202235, No Iterations 5
DILUPBiCGStab:  Solving for Uz, Initial residual = 0.588224, Final residual = 0.00948887, No Iterations 5
linear solve U 809028
[OGL LOG] init_host_sparsity_pattern : 442 ms
[OGL LOG] matrix not stored update host matrix
[OGL LOG] update_host_mtx : 222 ms
[OGL LOG] matrix is not yet sorted, sorting host matrix
[OGL LOG] sort_host_mtx_sparsity_pattern : 207 ms
[OGL LOG] sort_host_mtx : 117 ms
[OGL LOG] init_preconditioner : 0 ms
[OGL LOG] solve : 471 ms
nonehipGKOIR:  Solving for p, Initial residual = 0.757695, Final residual = 2.52283e-06, No Iterations 3
linear solve p 1501259
time step continuity errors : sum local = 1.87829e-09, global = 7.60659e-21, cumulative = -2.15811e-20
[OGL LOG] init_host_sparsity_pattern : 443 ms
[OGL LOG] matrix not stored update host matrix
[OGL LOG] update_host_mtx : 221 ms
[OGL LOG] matrix is not yet sorted, sorting host matrix
[OGL LOG] sort_host_mtx_sparsity_pattern : 204 ms
[OGL LOG] sort_host_mtx : 118 ms
[OGL LOG] init_preconditioner : 0 ms
[OGL LOG] solve : 468 ms
nonehipGKOIR:  Solving for p, Initial residual = 0.709729, Final residual = 2.33949e-06, No Iterations 3
linear solve p 1493927
time step continuity errors : sum local = 1.71447e-09, global = -2.53041e-21, cumulative = -2.41115e-20
ExecutionTime = 38.69 s  ClockTime = 35 s

Time = 0.006

Courant Number mean: 0.118979 max: 0.944935
DILUPBiCGStab:  Solving for Ux, Initial residual = 0.0203497, Final residual = 0.000433619, No Iterations 5
DILUPBiCGStab:  Solving for Uy, Initial residual = 0.0819045, Final residual = 0.00163633, No Iterations 5
DILUPBiCGStab:  Solving for Uz, Initial residual = 0.434955, Final residual = 0.0069544, No Iterations 5
linear solve U 817518
[OGL LOG] init_host_sparsity_pattern : 439 ms
[OGL LOG] matrix not stored update host matrix
[OGL LOG] update_host_mtx : 236 ms
[OGL LOG] matrix is not yet sorted, sorting host matrix
[OGL LOG] sort_host_mtx_sparsity_pattern : 199 ms
[OGL LOG] sort_host_mtx : 122 ms
[OGL LOG] init_preconditioner : 0 ms
[OGL LOG] solve : 470 ms
nonehipGKOIR:  Solving for p, Initial residual = 0.661494, Final residual = 2.11634e-06, No Iterations 3
linear solve p 1505089
time step continuity errors : sum local = 1.46654e-09, global = 8.63546e-21, cumulative = -1.54761e-20
[OGL LOG] init_host_sparsity_pattern : 440 ms
[OGL LOG] matrix not stored update host matrix
[OGL LOG] update_host_mtx : 222 ms
[OGL LOG] matrix is not yet sorted, sorting host matrix
[OGL LOG] sort_host_mtx_sparsity_pattern : 190 ms
[OGL LOG] sort_host_mtx : 114 ms
[OGL LOG] init_preconditioner : 0 ms
[OGL LOG] solve : 470 ms
nonehipGKOIR:  Solving for p, Initial residual = 0.600598, Final residual = 1.81867e-06, No Iterations 3
linear solve p 1476600
time step continuity errors : sum local = 1.26814e-09, global = -2.74384e-21, cumulative = -1.82199e-20
ExecutionTime = 43.67 s  ClockTime = 39 s

Time = 0.007

Courant Number mean: 0.12661 max: 0.947967
DILUPBiCGStab:  Solving for Ux, Initial residual = 0.0176529, Final residual = 0.000355377, No Iterations 5
DILUPBiCGStab:  Solving for Uy, Initial residual = 0.0557033, Final residual = 0.00126621, No Iterations 5
DILUPBiCGStab:  Solving for Uz, Initial residual = 0.379401, Final residual = 0.00583105, No Iterations 5
linear solve U 818257
[OGL LOG] init_host_sparsity_pattern : 447 ms
[OGL LOG] matrix not stored update host matrix
[OGL LOG] update_host_mtx : 231 ms
[OGL LOG] matrix is not yet sorted, sorting host matrix
[OGL LOG] sort_host_mtx_sparsity_pattern : 178 ms
[OGL LOG] sort_host_mtx : 112 ms
[OGL LOG] init_preconditioner : 0 ms
[OGL LOG] solve : 445 ms
nonehipGKOIR:  Solving for p, Initial residual = 0.659481, Final residual = 1.989e-06, No Iterations 3
linear solve p 1453498
time step continuity errors : sum local = 1.15819e-09, global = 8.92792e-21, cumulative = -9.29198e-21
[OGL LOG] init_host_sparsity_pattern : 441 ms
[OGL LOG] matrix not stored update host matrix
[OGL LOG] update_host_mtx : 221 ms
[OGL LOG] matrix is not yet sorted, sorting host matrix
[OGL LOG] sort_host_mtx_sparsity_pattern : 201 ms
[OGL LOG] sort_host_mtx : 117 ms
[OGL LOG] init_preconditioner : 0 ms
[OGL LOG] solve : 445 ms
nonehipGKOIR:  Solving for p, Initial residual = 0.601896, Final residual = 1.55382e-06, No Iterations 3
linear solve p 1463929
time step continuity errors : sum local = 8.9855e-10, global = 1.65324e-22, cumulative = -9.12665e-21
ExecutionTime = 48.54 s  ClockTime = 44 s

Time = 0.008

Courant Number mean: 0.132627 max: 0.951934
DILUPBiCGStab:  Solving for Ux, Initial residual = 0.0129791, Final residual = 0.000262086, No Iterations 5
DILUPBiCGStab:  Solving for Uy, Initial residual = 0.0477114, Final residual = 0.00100326, No Iterations 5
DILUPBiCGStab:  Solving for Uz, Initial residual = 0.286353, Final residual = 0.00444724, No Iterations 5
linear solve U 815123
[OGL LOG] init_host_sparsity_pattern : 447 ms
[OGL LOG] matrix not stored update host matrix
[OGL LOG] update_host_mtx : 231 ms
[OGL LOG] matrix is not yet sorted, sorting host matrix
[OGL LOG] sort_host_mtx_sparsity_pattern : 192 ms
[OGL LOG] sort_host_mtx : 120 ms
[OGL LOG] init_preconditioner : 0 ms
[OGL LOG] solve : 469 ms
nonehipGKOIR:  Solving for p, Initial residual = 0.566975, Final residual = 1.62671e-06, No Iterations 3
linear solve p 1499083
time step continuity errors : sum local = 9.11327e-10, global = 2.23159e-20, cumulative = 1.31893e-20
[OGL LOG] init_host_sparsity_pattern : 441 ms
[OGL LOG] matrix not stored update host matrix
[OGL LOG] update_host_mtx : 232 ms
[OGL LOG] matrix is not yet sorted, sorting host matrix
[OGL LOG] sort_host_mtx_sparsity_pattern : 187 ms
[OGL LOG] sort_host_mtx : 116 ms
[OGL LOG] init_preconditioner : 0 ms
[OGL LOG] solve : 469 ms
nonehipGKOIR:  Solving for p, Initial residual = 0.509205, Final residual = 1.4215e-06, No Iterations 3
linear solve p 1485183
time step continuity errors : sum local = 7.95734e-10, global = 4.99617e-21, cumulative = 1.81855e-20
ExecutionTime = 53.52 s  ClockTime = 48 s

Time = 0.009

Courant Number mean: 0.138049 max: 0.953447
DILUPBiCGStab:  Solving for Ux, Initial residual = 0.0114619, Final residual = 0.000214155, No Iterations 5
DILUPBiCGStab:  Solving for Uy, Initial residual = 0.0357145, Final residual = 0.00079427, No Iterations 5
DILUPBiCGStab:  Solving for Uz, Initial residual = 0.244658, Final residual = 0.00384557, No Iterations 5
linear solve U 815928
[OGL LOG] init_host_sparsity_pattern : 447 ms
[OGL LOG] matrix not stored update host matrix
[OGL LOG] update_host_mtx : 233 ms
[OGL LOG] matrix is not yet sorted, sorting host matrix
[OGL LOG] sort_host_mtx_sparsity_pattern : 192 ms
[OGL LOG] sort_host_mtx : 116 ms
[OGL LOG] init_preconditioner : 0 ms
[OGL LOG] solve : 419 ms
nonehipGKOIR:  Solving for p, Initial residual = 0.555828, Final residual = 1.47855e-06, No Iterations 3
linear solve p 1446795
time step continuity errors : sum local = 7.18738e-10, global = 6.84585e-21, cumulative = 2.50313e-20
[OGL LOG] init_host_sparsity_pattern : 440 ms
[OGL LOG] matrix not stored update host matrix
[OGL LOG] update_host_mtx : 228 ms
[OGL LOG] matrix is not yet sorted, sorting host matrix
[OGL LOG] sort_host_mtx_sparsity_pattern : 191 ms
[OGL LOG] sort_host_mtx : 118 ms
[OGL LOG] init_preconditioner : 0 ms
[OGL LOG] solve : 420 ms
nonehipGKOIR:  Solving for p, Initial residual = 0.496387, Final residual = 1.23173e-06, No Iterations 3
linear solve p 1436781
time step continuity errors : sum local = 5.97945e-10, global = -3.42728e-21, cumulative = 2.1604e-20
ExecutionTime = 58.35 s  ClockTime = 52 s

Time = 0.01

Courant Number mean: 0.142642 max: 0.955917
DILUPBiCGStab:  Solving for Ux, Initial residual = 0.00899373, Final residual = 0.000162528, No Iterations 5
DILUPBiCGStab:  Solving for Uy, Initial residual = 0.0308902, Final residual = 0.000636693, No Iterations 5
DILUPBiCGStab:  Solving for Uz, Initial residual = 0.189805, Final residual = 0.00309436, No Iterations 5
linear solve U 817174
[OGL LOG] init_host_sparsity_pattern : 447 ms
[OGL LOG] matrix not stored update host matrix
[OGL LOG] update_host_mtx : 230 ms
[OGL LOG] matrix is not yet sorted, sorting host matrix
[OGL LOG] sort_host_mtx_sparsity_pattern : 184 ms
[OGL LOG] sort_host_mtx : 121 ms
[OGL LOG] init_preconditioner : 0 ms
[OGL LOG] solve : 470 ms
nonehipGKOIR:  Solving for p, Initial residual = 0.477132, Final residual = 1.22695e-06, No Iterations 3
linear solve p 1492333
time step continuity errors : sum local = 5.83719e-10, global = 1.96222e-20, cumulative = 4.12263e-20
[OGL LOG] init_host_sparsity_pattern : 449 ms
[OGL LOG] matrix not stored update host matrix
[OGL LOG] update_host_mtx : 224 ms
[OGL LOG] matrix is not yet sorted, sorting host matrix
[OGL LOG] sort_host_mtx_sparsity_pattern : 189 ms
[OGL LOG] sort_host_mtx : 125 ms
[OGL LOG] init_preconditioner : 0 ms
[OGL LOG] solve : 219 ms
nonehipGKOIR:  Solving for p, Initial residual = 0.424351, Final residual = 8.91958e-05, No Iterations 2
linear solve p 1248552
time step continuity errors : sum local = 4.52088e-08, global = 7.14666e-21, cumulative = 4.83729e-20
ExecutionTime = 62.9 s  ClockTime = 56 s

End

