/*---------------------------------------------------------------------------*\
  =========                 |
  \\      /  F ield         | OpenFOAM: The Open Source CFD Toolbox
   \\    /   O peration     | Website:  https://openfoam.org
    \\  /    A nd           | Version:  8
     \\/     M anipulation  |
\*---------------------------------------------------------------------------*/
Build  : 8-ef60d22ea792
Exec   : icoFoam
Date   : Jul 29 2021
Time   : 08:36:14
Host   : "nla-gpu2.ianm.kit.edu"
PID    : 1986857
I/O    : uncollated
Case   : /home/greole/code/OBR/lidDrivenCavity3D/Variation_mesh/25/Variation_matrix_solver/BiCGStab_DIC_Serial/base
nProcs : 1
sigFpe : Enabling floating point exception trapping (FOAM_SIGFPE).
fileModificationChecking : Monitoring run-time modified files using timeStampMaster (fileModificationSkew 10)
allowSystemOperations : Allowing user-supplied system call operations

// * * * * * * * * * * * * * * * * * * * * * * * * * * * * * * * * * * * * * //
Create time

Create mesh for time = 0

Reading transportProperties

Reading field p

Reading field U

Reading/calculating face flux field phi


Starting time loop

Time = 0.001

Courant Number mean: 0 max: 0
DILUPBiCGStab:  Solving for Ux, Initial residual = 1, Final residual = 1.01737e-08, No Iterations 5
DILUPBiCGStab:  Solving for Uy:  solution singularity
DILUPBiCGStab:  Solving for Uz:  solution singularity
linear solve U 5686
DICPBiCGStab:  Solving for p, Initial residual = 1, Final residual = 5.41967e-05, No Iterations 44
linear solve p 24303
time step continuity errors : sum local = 4.87194e-08, global = 4.43369e-22, cumulative = 4.43369e-22
DICPBiCGStab:  Solving for p, Initial residual = 0.481327, Final residual = 9.69099e-05, No Iterations 43
linear solve p 23973
time step continuity errors : sum local = 1.23215e-07, global = -4.72062e-21, cumulative = -4.27725e-21
ExecutionTime = 0.19 s  ClockTime = 0 s

Time = 0.002

Courant Number mean: 0.011981 max: 0.106547
DILUPBiCGStab:  Solving for Ux, Initial residual = 0.210733, Final residual = 1.44923e-09, No Iterations 5
DILUPBiCGStab:  Solving for Uy, Initial residual = 0.284292, Final residual = 1.36642e-09, No Iterations 5
DILUPBiCGStab:  Solving for Uz, Initial residual = 0.882535, Final residual = 5.14547e-09, No Iterations 5
linear solve U 10249
DICPBiCGStab:  Solving for p, Initial residual = 0.286456, Final residual = 7.51646e-05, No Iterations 43
linear solve p 23887
time step continuity errors : sum local = 1.13573e-07, global = -4.23547e-21, cumulative = -8.51272e-21
DICPBiCGStab:  Solving for p, Initial residual = 0.18991, Final residual = 5.95404e-05, No Iterations 43
linear solve p 25212
time step continuity errors : sum local = 6.4867e-08, global = 3.54351e-20, cumulative = 2.69224e-20
ExecutionTime = 0.25 s  ClockTime = 0 s

Time = 0.003

Courant Number mean: 0.018859 max: 0.15358
DILUPBiCGStab:  Solving for Ux, Initial residual = 0.0901897, Final residual = 5.46842e-10, No Iterations 5
DILUPBiCGStab:  Solving for Uy, Initial residual = 0.124329, Final residual = 4.86119e-10, No Iterations 5
DILUPBiCGStab:  Solving for Uz, Initial residual = 0.256351, Final residual = 1.45337e-09, No Iterations 5
linear solve U 10161
DICPBiCGStab:  Solving for p, Initial residual = 0.103151, Final residual = 5.80146e-05, No Iterations 43
linear solve p 25792
time step continuity errors : sum local = 5.33754e-08, global = -2.63862e-20, cumulative = 5.36116e-22
DICPBiCGStab:  Solving for p, Initial residual = 0.0706346, Final residual = 4.17099e-05, No Iterations 44
linear solve p 24127
time step continuity errors : sum local = 3.94321e-08, global = -4.25192e-21, cumulative = -3.7158e-21
ExecutionTime = 0.32 s  ClockTime = 0 s

Time = 0.004

Courant Number mean: 0.0233284 max: 0.175141
DILUPBiCGStab:  Solving for Ux, Initial residual = 0.0520694, Final residual = 2.37917e-10, No Iterations 5
DILUPBiCGStab:  Solving for Uy, Initial residual = 0.0742668, Final residual = 1.97791e-10, No Iterations 5
DILUPBiCGStab:  Solving for Uz, Initial residual = 0.129795, Final residual = 5.19844e-10, No Iterations 5
linear solve U 10138
DICPBiCGStab:  Solving for p, Initial residual = 0.0554928, Final residual = 8.80511e-05, No Iterations 18
linear solve p 10076
time step continuity errors : sum local = 1.19418e-07, global = -7.18613e-24, cumulative = -3.72298e-21
DICPBiCGStab:  Solving for p, Initial residual = 0.0374424, Final residual = 9.21073e-05, No Iterations 16
linear solve p 9412
time step continuity errors : sum local = 8.90042e-08, global = -1.71636e-20, cumulative = -2.08866e-20
ExecutionTime = 0.35 s  ClockTime = 0 s

Time = 0.005

Courant Number mean: 0.0265077 max: 0.186526
DILUPBiCGStab:  Solving for Ux, Initial residual = 0.0351342, Final residual = 1.72472e-10, No Iterations 5
DILUPBiCGStab:  Solving for Uy, Initial residual = 0.0507662, Final residual = 1.02661e-10, No Iterations 5
DILUPBiCGStab:  Solving for Uz, Initial residual = 0.0906643, Final residual = 2.72004e-10, No Iterations 5
linear solve U 10134
DICPBiCGStab:  Solving for p, Initial residual = 0.0352526, Final residual = 7.81173e-05, No Iterations 17
linear solve p 9398
time step continuity errors : sum local = 1.11421e-07, global = 4.65361e-21, cumulative = -1.6233e-20
DICPBiCGStab:  Solving for p, Initial residual = 0.0234585, Final residual = 6.84986e-05, No Iterations 16
linear solve p 8921
time step continuity errors : sum local = 8.29196e-08, global = 1.28254e-21, cumulative = -1.49504e-20
ExecutionTime = 0.4 s  ClockTime = 0 s

Time = 0.006

Courant Number mean: 0.0289088 max: 0.193356
DILUPBiCGStab:  Solving for Ux, Initial residual = 0.0259453, Final residual = 7.71163e-11, No Iterations 5
DILUPBiCGStab:  Solving for Uy, Initial residual = 0.0379425, Final residual = 6.95822e-11, No Iterations 5
DILUPBiCGStab:  Solving for Uz, Initial residual = 0.0700597, Final residual = 1.81328e-10, No Iterations 5
linear solve U 10285
DICPBiCGStab:  Solving for p, Initial residual = 0.0245392, Final residual = 9.77146e-05, No Iterations 16
linear solve p 8859
time step continuity errors : sum local = 1.30477e-07, global = 1.372e-20, cumulative = -1.23038e-21
DICPBiCGStab:  Solving for p, Initial residual = 0.0165135, Final residual = 6.01338e-05, No Iterations 16
linear solve p 8862
time step continuity errors : sum local = 8.52277e-08, global = 1.50235e-20, cumulative = 1.37931e-20
ExecutionTime = 0.43 s  ClockTime = 0 s

Time = 0.007

Courant Number mean: 0.0308448 max: 0.197908
DILUPBiCGStab:  Solving for Ux, Initial residual = 0.0203535, Final residual = 3.52084e-11, No Iterations 5
DILUPBiCGStab:  Solving for Uy, Initial residual = 0.0299901, Final residual = 5.18727e-11, No Iterations 5
DILUPBiCGStab:  Solving for Uz, Initial residual = 0.0569489, Final residual = 1.29227e-10, No Iterations 5
linear solve U 11024
DICPBiCGStab:  Solving for p, Initial residual = 0.0187319, Final residual = 8.83448e-05, No Iterations 16
linear solve p 9153
time step continuity errors : sum local = 1.25469e-07, global = -1.72757e-21, cumulative = 1.20655e-20
DICPBiCGStab:  Solving for p, Initial residual = 0.0127278, Final residual = 5.82958e-05, No Iterations 16
linear solve p 8857
time step continuity errors : sum local = 9.01617e-08, global = 2.02721e-21, cumulative = 1.40927e-20
ExecutionTime = 0.46 s  ClockTime = 0 s

Time = 0.008

Courant Number mean: 0.0324898 max: 0.201188
DILUPBiCGStab:  Solving for Ux, Initial residual = 0.0165211, Final residual = 1.96433e-11, No Iterations 5
DILUPBiCGStab:  Solving for Uy, Initial residual = 0.0245771, Final residual = 3.95203e-11, No Iterations 5
DILUPBiCGStab:  Solving for Uz, Initial residual = 0.047603, Final residual = 9.63121e-11, No Iterations 5
linear solve U 10085
DICPBiCGStab:  Solving for p, Initial residual = 0.0149645, Final residual = 8.30661e-05, No Iterations 16
linear solve p 8926
time step continuity errors : sum local = 1.23849e-07, global = 1.67051e-20, cumulative = 3.07978e-20
DICPBiCGStab:  Solving for p, Initial residual = 0.0102325, Final residual = 9.85863e-05, No Iterations 15
linear solve p 8296
time step continuity errors : sum local = 1.29663e-07, global = 1.23463e-20, cumulative = 4.31441e-20
ExecutionTime = 0.5 s  ClockTime = 0 s

Time = 0.009

Courant Number mean: 0.0338933 max: 0.203683
DILUPBiCGStab:  Solving for Ux, Initial residual = 0.013772, Final residual = 1.28227e-11, No Iterations 5
DILUPBiCGStab:  Solving for Uy, Initial residual = 0.0206746, Final residual = 3.02325e-11, No Iterations 5
DILUPBiCGStab:  Solving for Uz, Initial residual = 0.0406888, Final residual = 7.42141e-11, No Iterations 5
linear solve U 10095
DICPBiCGStab:  Solving for p, Initial residual = 0.0124859, Final residual = 7.77397e-05, No Iterations 16
linear solve p 9060
time step continuity errors : sum local = 1.20792e-07, global = -3.34309e-20, cumulative = 9.71322e-21
DICPBiCGStab:  Solving for p, Initial residual = 0.00858628, Final residual = 8.89585e-05, No Iterations 15
linear solve p 8478
time step continuity errors : sum local = 1.25082e-07, global = 1.26623e-20, cumulative = 2.23755e-20
ExecutionTime = 0.53 s  ClockTime = 0 s

Time = 0.01

Courant Number mean: 0.0351037 max: 0.205656
DILUPBiCGStab:  Solving for Ux, Initial residual = 0.0117117, Final residual = 9.30437e-12, No Iterations 5
DILUPBiCGStab:  Solving for Uy, Initial residual = 0.0176915, Final residual = 2.33937e-11, No Iterations 5
DILUPBiCGStab:  Solving for Uz, Initial residual = 0.035191, Final residual = 5.79998e-11, No Iterations 5
linear solve U 11179
DICPBiCGStab:  Solving for p, Initial residual = 0.0104932, Final residual = 7.53244e-05, No Iterations 16
linear solve p 8884
time step continuity errors : sum local = 1.20994e-07, global = 3.60403e-20, cumulative = 5.84158e-20
DICPBiCGStab:  Solving for p, Initial residual = 0.00725099, Final residual = 8.22847e-05, No Iterations 15
linear solve p 8401
time step continuity errors : sum local = 1.22365e-07, global = 1.25471e-20, cumulative = 7.09628e-20
ExecutionTime = 0.56 s  ClockTime = 0 s

End

