/*---------------------------------------------------------------------------*\
  =========                 |
  \\      /  F ield         | OpenFOAM: The Open Source CFD Toolbox
   \\    /   O peration     | Website:  https://openfoam.org
    \\  /    A nd           | Version:  8
     \\/     M anipulation  |
\*---------------------------------------------------------------------------*/
Build  : 8-ef60d22ea792
Exec   : icoFoam
Date   : Jul 28 2021
Time   : 22:08:32
Host   : "uc2n477.localdomain"
PID    : 932868
I/O    : uncollated
Case   : /pfs/data5/home/kit/scc/nq7776/code/OBR/lidDrivenCavity3D/Variation_mesh/5/Variation_matrix_solver/BiCGStab_NoPrecond_OMP/base
nProcs : 1
sigFpe : Enabling floating point exception trapping (FOAM_SIGFPE).
fileModificationChecking : Monitoring run-time modified files using timeStampMaster (fileModificationSkew 10)
allowSystemOperations : Allowing user-supplied system call operations

// * * * * * * * * * * * * * * * * * * * * * * * * * * * * * * * * * * * * * //
Create time

Create mesh for time = 0

Reading transportProperties

Reading field p

Reading field U

Reading/calculating face flux field phi


Starting time loop

Time = 0.001

Courant Number mean: 0 max: 0
DILUPBiCGStab:  Solving for Ux, Initial residual = 1, Final residual = 8.38041e-30, No Iterations 5
DILUPBiCGStab:  Solving for Uy:  solution singularity
DILUPBiCGStab:  Solving for Uz:  solution singularity
linear solve U 151
[OGL LOG] init_host_sparsity_pattern : 0 ms
[OGL LOG] matrix not stored update host matrix
[OGL LOG] update_host_mtx : 0 ms
[OGL LOG] matrix is not yet sorted, compute sorting idxs
[OGL LOG] compute_sort : 0 ms
[OGL LOG] matrix is not yet sorted, sorting host matrix
[OGL LOG] sort_host_mtx_sparsity_pattern : 0 ms
[OGL LOG] sort_host_mtx : 0 ms
[OGL LOG] init_preconditioner : 0 ms
[OGL LOG] solve : 4 ms
noneompGKOBiCGStab:  Solving for p, Initial residual = 1, Final residual = 7.38526e-05, No Iterations 23
linear solve p 9201
time step continuity errors : sum local = 8.44893e-07, global = -1.62789e-21, cumulative = -1.62789e-21
[OGL LOG] init_host_sparsity_pattern : 0 ms
[OGL LOG] matrix not stored update host matrix
[OGL LOG] update_host_mtx : 0 ms
[OGL LOG] matrix is not yet sorted, sorting host matrix
[OGL LOG] sort_host_mtx_sparsity_pattern : 0 ms
[OGL LOG] sort_host_mtx : 0 ms
[OGL LOG] init_preconditioner : 0 ms
[OGL LOG] solve : 3 ms
noneompGKOBiCGStab:  Solving for p, Initial residual = 0.0562841, Final residual = 5.21697e-05, No Iterations 21
linear solve p 3413
time step continuity errors : sum local = 1.45233e-06, global = -3.81165e-21, cumulative = -5.43954e-21
ExecutionTime = 0.19 s  ClockTime = 0 s

Time = 0.002

Courant Number mean: 0.000593411 max: 0.00137748
DILUPBiCGStab:  Solving for Ux, Initial residual = 0.290568, Final residual = 1.32893e-30, No Iterations 5
DILUPBiCGStab:  Solving for Uy, Initial residual = 0.317539, Final residual = 1.13725e-30, No Iterations 5
DILUPBiCGStab:  Solving for Uz, Initial residual = 0.337381, Final residual = 1.26741e-30, No Iterations 5
linear solve U 118
[OGL LOG] init_host_sparsity_pattern : 0 ms
[OGL LOG] matrix not stored update host matrix
[OGL LOG] update_host_mtx : 0 ms
[OGL LOG] matrix is not yet sorted, sorting host matrix
[OGL LOG] sort_host_mtx_sparsity_pattern : 0 ms
[OGL LOG] sort_host_mtx : 0 ms
[OGL LOG] init_preconditioner : 0 ms
[OGL LOG] solve : 2 ms
noneompGKOBiCGStab:  Solving for p, Initial residual = 0.112532, Final residual = 7.66751e-05, No Iterations 20
linear solve p 3119
time step continuity errors : sum local = 1.35821e-06, global = 3.46589e-21, cumulative = -1.97365e-21
[OGL LOG] init_host_sparsity_pattern : 0 ms
[OGL LOG] matrix not stored update host matrix
[OGL LOG] update_host_mtx : 0 ms
[OGL LOG] matrix is not yet sorted, sorting host matrix
[OGL LOG] sort_host_mtx_sparsity_pattern : 0 ms
[OGL LOG] sort_host_mtx : 0 ms
[OGL LOG] init_preconditioner : 0 ms
[OGL LOG] solve : 0 ms
noneompGKOBiCGStab:  Solving for p, Initial residual = 0.0051221, Final residual = 9.42937e-05, No Iterations 6
linear solve p 1245
time step continuity errors : sum local = 9.64642e-08, global = -8.62543e-22, cumulative = -2.8362e-21
ExecutionTime = 0.27 s  ClockTime = 0 s

Time = 0.003

Courant Number mean: 0.00113053 max: 0.00263312
DILUPBiCGStab:  Solving for Ux, Initial residual = 0.16195, Final residual = 7.38339e-31, No Iterations 5
DILUPBiCGStab:  Solving for Uy, Initial residual = 0.186622, Final residual = 6.78297e-31, No Iterations 5
DILUPBiCGStab:  Solving for Uz, Initial residual = 0.252305, Final residual = 1.26636e-30, No Iterations 5
linear solve U 118
[OGL LOG] init_host_sparsity_pattern : 0 ms
[OGL LOG] matrix not stored update host matrix
[OGL LOG] update_host_mtx : 0 ms
[OGL LOG] matrix is not yet sorted, sorting host matrix
[OGL LOG] sort_host_mtx_sparsity_pattern : 0 ms
[OGL LOG] sort_host_mtx : 0 ms
[OGL LOG] init_preconditioner : 0 ms
[OGL LOG] solve : 2 ms
noneompGKOBiCGStab:  Solving for p, Initial residual = 0.0568047, Final residual = 9.9816e-05, No Iterations 14
linear solve p 2312
time step continuity errors : sum local = 2.55995e-07, global = 6.18897e-21, cumulative = 3.35277e-21
[OGL LOG] init_host_sparsity_pattern : 0 ms
[OGL LOG] matrix not stored update host matrix
[OGL LOG] update_host_mtx : 0 ms
[OGL LOG] matrix is not yet sorted, sorting host matrix
[OGL LOG] sort_host_mtx_sparsity_pattern : 0 ms
[OGL LOG] sort_host_mtx : 0 ms
[OGL LOG] init_preconditioner : 0 ms
[OGL LOG] solve : 0 ms
noneompGKOBiCGStab:  Solving for p, Initial residual = 0.00164593, Final residual = 9.10212e-05, No Iterations 4
linear solve p 955
time step continuity errors : sum local = 1.06578e-07, global = -7.72545e-21, cumulative = -4.37268e-21
ExecutionTime = 0.34 s  ClockTime = 0 s

Time = 0.004

Courant Number mean: 0.00161826 max: 0.00379117
DILUPBiCGStab:  Solving for Ux, Initial residual = 0.108848, Final residual = 5.01445e-31, No Iterations 5
DILUPBiCGStab:  Solving for Uy, Initial residual = 0.129123, Final residual = 4.6068e-31, No Iterations 5
DILUPBiCGStab:  Solving for Uz, Initial residual = 0.174057, Final residual = 9.60204e-31, No Iterations 5
linear solve U 115
[OGL LOG] init_host_sparsity_pattern : 0 ms
[OGL LOG] matrix not stored update host matrix
[OGL LOG] update_host_mtx : 0 ms
[OGL LOG] matrix is not yet sorted, sorting host matrix
[OGL LOG] sort_host_mtx_sparsity_pattern : 0 ms
[OGL LOG] sort_host_mtx : 0 ms
[OGL LOG] init_preconditioner : 0 ms
[OGL LOG] solve : 2 ms
noneompGKOBiCGStab:  Solving for p, Initial residual = 0.0347179, Final residual = 7.44798e-05, No Iterations 16
linear solve p 2619
time step continuity errors : sum local = 1.40426e-06, global = 3.01094e-21, cumulative = -1.36175e-21
[OGL LOG] init_host_sparsity_pattern : 0 ms
[OGL LOG] matrix not stored update host matrix
[OGL LOG] update_host_mtx : 0 ms
[OGL LOG] matrix is not yet sorted, sorting host matrix
[OGL LOG] sort_host_mtx_sparsity_pattern : 0 ms
[OGL LOG] sort_host_mtx : 0 ms
[OGL LOG] init_preconditioner : 0 ms
[OGL LOG] solve : 0 ms
noneompGKOBiCGStab:  Solving for p, Initial residual = 0.00308227, Final residual = 9.64984e-05, No Iterations 5
linear solve p 1073
time step continuity errors : sum local = 1.2533e-07, global = -1.38321e-20, cumulative = -1.51939e-20
ExecutionTime = 0.4 s  ClockTime = 0 s

Time = 0.005

Courant Number mean: 0.00206193 max: 0.004858
DILUPBiCGStab:  Solving for Ux, Initial residual = 0.0800523, Final residual = 3.73249e-31, No Iterations 5
DILUPBiCGStab:  Solving for Uy, Initial residual = 0.0966998, Final residual = 3.34183e-31, No Iterations 5
DILUPBiCGStab:  Solving for Uz, Initial residual = 0.139113, Final residual = 7.06054e-31, No Iterations 5
linear solve U 116
[OGL LOG] init_host_sparsity_pattern : 0 ms
[OGL LOG] matrix not stored update host matrix
[OGL LOG] update_host_mtx : 0 ms
[OGL LOG] matrix is not yet sorted, sorting host matrix
[OGL LOG] sort_host_mtx_sparsity_pattern : 0 ms
[OGL LOG] sort_host_mtx : 0 ms
[OGL LOG] init_preconditioner : 0 ms
[OGL LOG] solve : 2 ms
noneompGKOBiCGStab:  Solving for p, Initial residual = 0.0235418, Final residual = 7.12958e-05, No Iterations 16
linear solve p 2633
time step continuity errors : sum local = 7.57084e-07, global = -2.82234e-21, cumulative = -1.80162e-20
[OGL LOG] init_host_sparsity_pattern : 0 ms
[OGL LOG] matrix not stored update host matrix
[OGL LOG] update_host_mtx : 0 ms
[OGL LOG] matrix is not yet sorted, sorting host matrix
[OGL LOG] sort_host_mtx_sparsity_pattern : 0 ms
[OGL LOG] sort_host_mtx : 0 ms
[OGL LOG] init_preconditioner : 0 ms
[OGL LOG] solve : 0 ms
noneompGKOBiCGStab:  Solving for p, Initial residual = 0.00170749, Final residual = 9.15583e-05, No Iterations 5
linear solve p 1125
time step continuity errors : sum local = 1.18906e-07, global = -3.76367e-21, cumulative = -2.17799e-20
ExecutionTime = 0.48 s  ClockTime = 0 s

Time = 0.006

Courant Number mean: 0.00246619 max: 0.00584202
DILUPBiCGStab:  Solving for Ux, Initial residual = 0.0620459, Final residual = 2.92047e-31, No Iterations 5
DILUPBiCGStab:  Solving for Uy, Initial residual = 0.0759753, Final residual = 2.54512e-31, No Iterations 5
DILUPBiCGStab:  Solving for Uz, Initial residual = 0.116202, Final residual = 6.09646e-31, No Iterations 5
linear solve U 122
[OGL LOG] init_host_sparsity_pattern : 0 ms
[OGL LOG] matrix not stored update host matrix
[OGL LOG] update_host_mtx : 0 ms
[OGL LOG] matrix is not yet sorted, sorting host matrix
[OGL LOG] sort_host_mtx_sparsity_pattern : 0 ms
[OGL LOG] sort_host_mtx : 0 ms
[OGL LOG] init_preconditioner : 0 ms
[OGL LOG] solve : 2 ms
noneompGKOBiCGStab:  Solving for p, Initial residual = 0.0172295, Final residual = 7.27341e-05, No Iterations 16
linear solve p 2610
time step continuity errors : sum local = 1.33809e-06, global = -4.16227e-21, cumulative = -2.59421e-20
[OGL LOG] init_host_sparsity_pattern : 0 ms
[OGL LOG] matrix not stored update host matrix
[OGL LOG] update_host_mtx : 0 ms
[OGL LOG] matrix is not yet sorted, sorting host matrix
[OGL LOG] sort_host_mtx_sparsity_pattern : 0 ms
[OGL LOG] sort_host_mtx : 0 ms
[OGL LOG] init_preconditioner : 0 ms
[OGL LOG] solve : 0 ms
noneompGKOBiCGStab:  Solving for p, Initial residual = 0.00251403, Final residual = 9.0402e-05, No Iterations 5
linear solve p 1089
time step continuity errors : sum local = 1.27479e-07, global = 2.16986e-20, cumulative = -4.24354e-21
ExecutionTime = 0.54 s  ClockTime = 0 s

Time = 0.007

Courant Number mean: 0.00283513 max: 0.00675077
DILUPBiCGStab:  Solving for Ux, Initial residual = 0.0497715, Final residual = 2.35939e-31, No Iterations 5
DILUPBiCGStab:  Solving for Uy, Initial residual = 0.0616468, Final residual = 2.02604e-31, No Iterations 5
DILUPBiCGStab:  Solving for Uz, Initial residual = 0.0991431, Final residual = 6.10637e-31, No Iterations 5
linear solve U 115
[OGL LOG] init_host_sparsity_pattern : 0 ms
[OGL LOG] matrix not stored update host matrix
[OGL LOG] update_host_mtx : 0 ms
[OGL LOG] matrix is not yet sorted, sorting host matrix
[OGL LOG] sort_host_mtx_sparsity_pattern : 0 ms
[OGL LOG] sort_host_mtx : 0 ms
[OGL LOG] init_preconditioner : 0 ms
[OGL LOG] solve : 2 ms
noneompGKOBiCGStab:  Solving for p, Initial residual = 0.0132451, Final residual = 9.70634e-05, No Iterations 15
linear solve p 2358
time step continuity errors : sum local = 1.07174e-06, global = 4.21531e-21, cumulative = -2.82275e-23
[OGL LOG] init_host_sparsity_pattern : 0 ms
[OGL LOG] matrix not stored update host matrix
[OGL LOG] update_host_mtx : 0 ms
[OGL LOG] matrix is not yet sorted, sorting host matrix
[OGL LOG] sort_host_mtx_sparsity_pattern : 0 ms
[OGL LOG] sort_host_mtx : 0 ms
[OGL LOG] init_preconditioner : 0 ms
[OGL LOG] solve : 1 ms
noneompGKOBiCGStab:  Solving for p, Initial residual = 0.00194647, Final residual = 9.24982e-05, No Iterations 10
linear solve p 1739
time step continuity errors : sum local = 5.86509e-07, global = 2.58742e-21, cumulative = 2.55919e-21
ExecutionTime = 0.62 s  ClockTime = 0 s

Time = 0.008

Courant Number mean: 0.0031724 max: 0.00759046
DILUPBiCGStab:  Solving for Ux, Initial residual = 0.0409198, Final residual = 1.95775e-31, No Iterations 5
DILUPBiCGStab:  Solving for Uy, Initial residual = 0.0512035, Final residual = 1.6712e-31, No Iterations 5
DILUPBiCGStab:  Solving for Uz, Initial residual = 0.0866273, Final residual = 6.28339e-31, No Iterations 5
linear solve U 114
[OGL LOG] init_host_sparsity_pattern : 0 ms
[OGL LOG] matrix not stored update host matrix
[OGL LOG] update_host_mtx : 0 ms
[OGL LOG] matrix is not yet sorted, sorting host matrix
[OGL LOG] sort_host_mtx_sparsity_pattern : 0 ms
[OGL LOG] sort_host_mtx : 0 ms
[OGL LOG] init_preconditioner : 0 ms
[OGL LOG] solve : 2 ms
noneompGKOBiCGStab:  Solving for p, Initial residual = 0.0111658, Final residual = 8.24847e-05, No Iterations 16
linear solve p 2484
time step continuity errors : sum local = 8.0957e-07, global = -9.55559e-21, cumulative = -6.9964e-21
[OGL LOG] init_host_sparsity_pattern : 0 ms
[OGL LOG] matrix not stored update host matrix
[OGL LOG] update_host_mtx : 0 ms
[OGL LOG] matrix is not yet sorted, sorting host matrix
[OGL LOG] sort_host_mtx_sparsity_pattern : 0 ms
[OGL LOG] sort_host_mtx : 0 ms
[OGL LOG] init_preconditioner : 0 ms
[OGL LOG] solve : 0 ms
noneompGKOBiCGStab:  Solving for p, Initial residual = 0.00146347, Final residual = 9.96612e-05, No Iterations 5
linear solve p 1023
time step continuity errors : sum local = 1.12541e-07, global = 3.182e-20, cumulative = 2.48236e-20
ExecutionTime = 0.68 s  ClockTime = 0 s

Time = 0.009

Courant Number mean: 0.00348091 max: 0.00836823
DILUPBiCGStab:  Solving for Ux, Initial residual = 0.0342254, Final residual = 1.65699e-31, No Iterations 5
DILUPBiCGStab:  Solving for Uy, Initial residual = 0.043297, Final residual = 1.40199e-31, No Iterations 5
DILUPBiCGStab:  Solving for Uz, Initial residual = 0.0759813, Final residual = 5.7581e-31, No Iterations 5
linear solve U 115
[OGL LOG] init_host_sparsity_pattern : 0 ms
[OGL LOG] matrix not stored update host matrix
[OGL LOG] update_host_mtx : 0 ms
[OGL LOG] matrix is not yet sorted, sorting host matrix
[OGL LOG] sort_host_mtx_sparsity_pattern : 0 ms
[OGL LOG] sort_host_mtx : 0 ms
[OGL LOG] init_preconditioner : 0 ms
[OGL LOG] solve : 2 ms
noneompGKOBiCGStab:  Solving for p, Initial residual = 0.00883344, Final residual = 9.90905e-05, No Iterations 15
linear solve p 2319
time step continuity errors : sum local = 1.00204e-06, global = -1.75296e-20, cumulative = 7.29398e-21
[OGL LOG] init_host_sparsity_pattern : 0 ms
[OGL LOG] matrix not stored update host matrix
[OGL LOG] update_host_mtx : 0 ms
[OGL LOG] matrix is not yet sorted, sorting host matrix
[OGL LOG] sort_host_mtx_sparsity_pattern : 0 ms
[OGL LOG] sort_host_mtx : 0 ms
[OGL LOG] init_preconditioner : 0 ms
[OGL LOG] solve : 0 ms
noneompGKOBiCGStab:  Solving for p, Initial residual = 0.00172172, Final residual = 9.89078e-05, No Iterations 6
linear solve p 1203
time step continuity errors : sum local = 1.42353e-07, global = -6.18731e-21, cumulative = 1.10666e-21
ExecutionTime = 0.75 s  ClockTime = 0 s

Time = 0.01

Courant Number mean: 0.00376376 max: 0.00908824
DILUPBiCGStab:  Solving for Ux, Initial residual = 0.0290583, Final residual = 1.4315e-31, No Iterations 5
DILUPBiCGStab:  Solving for Uy, Initial residual = 0.0371182, Final residual = 1.1939e-31, No Iterations 5
DILUPBiCGStab:  Solving for Uz, Initial residual = 0.0679466, Final residual = 5.06598e-31, No Iterations 5
linear solve U 114
[OGL LOG] init_host_sparsity_pattern : 0 ms
[OGL LOG] matrix not stored update host matrix
[OGL LOG] update_host_mtx : 0 ms
[OGL LOG] matrix is not yet sorted, sorting host matrix
[OGL LOG] sort_host_mtx_sparsity_pattern : 0 ms
[OGL LOG] sort_host_mtx : 0 ms
[OGL LOG] init_preconditioner : 0 ms
[OGL LOG] solve : 2 ms
noneompGKOBiCGStab:  Solving for p, Initial residual = 0.0073416, Final residual = 7.8691e-05, No Iterations 15
linear solve p 2305
time step continuity errors : sum local = 8.05584e-07, global = -1.01048e-20, cumulative = -8.99817e-21
[OGL LOG] init_host_sparsity_pattern : 0 ms
[OGL LOG] matrix not stored update host matrix
[OGL LOG] update_host_mtx : 0 ms
[OGL LOG] matrix is not yet sorted, sorting host matrix
[OGL LOG] sort_host_mtx_sparsity_pattern : 0 ms
[OGL LOG] sort_host_mtx : 0 ms
[OGL LOG] init_preconditioner : 0 ms
[OGL LOG] solve : 0 ms
noneompGKOBiCGStab:  Solving for p, Initial residual = 0.00141039, Final residual = 9.97855e-05, No Iterations 6
linear solve p 1146
time step continuity errors : sum local = 1.2303e-07, global = -3.30872e-22, cumulative = -9.32905e-21
ExecutionTime = 0.81 s  ClockTime = 0 s

End

