/*---------------------------------------------------------------------------*\
  =========                 |
  \\      /  F ield         | OpenFOAM: The Open Source CFD Toolbox
   \\    /   O peration     | Website:  https://openfoam.org
    \\  /    A nd           | Version:  8
     \\/     M anipulation  |
\*---------------------------------------------------------------------------*/
Build  : 8-ef60d22ea792
Exec   : icoFoam
Date   : Jul 29 2021
Time   : 07:58:25
Host   : "nla-gpu2.ianm.kit.edu"
PID    : 1968790
I/O    : uncollated
Case   : /home/greole/code/OBR/lidDrivenCavity3D/Variation_mesh/50/Variation_matrix_solver/BiCGStab_DIC_Serial/base
nProcs : 1
sigFpe : Enabling floating point exception trapping (FOAM_SIGFPE).
fileModificationChecking : Monitoring run-time modified files using timeStampMaster (fileModificationSkew 10)
allowSystemOperations : Allowing user-supplied system call operations

// * * * * * * * * * * * * * * * * * * * * * * * * * * * * * * * * * * * * * //
Create time

Create mesh for time = 0

Reading transportProperties

Reading field p

Reading field U

Reading/calculating face flux field phi


Starting time loop

Time = 0.001

Courant Number mean: 0 max: 0
DILUPBiCGStab:  Solving for Ux, Initial residual = 1, Final residual = 0.000120903, No Iterations 5
DILUPBiCGStab:  Solving for Uy:  solution singularity
DILUPBiCGStab:  Solving for Uz:  solution singularity
linear solve U 51039
DICPBiCGStab:  Solving for p, Initial residual = 1, Final residual = 8.82277e-05, No Iterations 97
linear solve p 466396
time step continuity errors : sum local = 7.15777e-08, global = 1.87873e-21, cumulative = 1.87873e-21
DICPBiCGStab:  Solving for p, Initial residual = 0.658278, Final residual = 9.16403e-05, No Iterations 92
linear solve p 435223
time step continuity errors : sum local = 7.93601e-08, global = 4.95233e-21, cumulative = 6.83106e-21
ExecutionTime = 1.58 s  ClockTime = 2 s

Time = 0.002

Courant Number mean: 0.0274931 max: 0.329481
DILUPBiCGStab:  Solving for Ux, Initial residual = 0.167055, Final residual = 2.79823e-05, No Iterations 5
DILUPBiCGStab:  Solving for Uy, Initial residual = 0.315278, Final residual = 4.21799e-05, No Iterations 5
DILUPBiCGStab:  Solving for Uz, Initial residual = 0.970747, Final residual = 0.000170646, No Iterations 5
linear solve U 89867
DICPBiCGStab:  Solving for p, Initial residual = 0.54325, Final residual = 5.91335e-05, No Iterations 89
linear solve p 423426
time step continuity errors : sum local = 8.05907e-08, global = -1.16257e-20, cumulative = -4.79466e-21
DICPBiCGStab:  Solving for p, Initial residual = 0.457007, Final residual = 6.0632e-05, No Iterations 88
linear solve p 420752
time step continuity errors : sum local = 8.06139e-08, global = 1.49483e-20, cumulative = 1.01536e-20
ExecutionTime = 2.56 s  ClockTime = 3 s

Time = 0.003

Courant Number mean: 0.0414309 max: 0.409649
DILUPBiCGStab:  Solving for Ux, Initial residual = 0.0556637, Final residual = 8.57952e-06, No Iterations 5
DILUPBiCGStab:  Solving for Uy, Initial residual = 0.0995737, Final residual = 9.94362e-06, No Iterations 5
DILUPBiCGStab:  Solving for Uz, Initial residual = 0.152731, Final residual = 2.38857e-05, No Iterations 5
linear solve U 90492
DICPBiCGStab:  Solving for p, Initial residual = 0.309705, Final residual = 8.73285e-05, No Iterations 81
linear solve p 389298
time step continuity errors : sum local = 9.83716e-08, global = -4.63568e-21, cumulative = 5.51794e-21
DICPBiCGStab:  Solving for p, Initial residual = 0.258679, Final residual = 9.81118e-05, No Iterations 42
linear solve p 204039
time step continuity errors : sum local = 1.06332e-07, global = 1.14138e-20, cumulative = 1.69317e-20
ExecutionTime = 3.29 s  ClockTime = 4 s

Time = 0.004

Courant Number mean: 0.0493939 max: 0.429163
DILUPBiCGStab:  Solving for Ux, Initial residual = 0.0328872, Final residual = 2.27816e-06, No Iterations 5
DILUPBiCGStab:  Solving for Uy, Initial residual = 0.0647992, Final residual = 4.56628e-06, No Iterations 5
DILUPBiCGStab:  Solving for Uz, Initial residual = 0.140654, Final residual = 2.20501e-05, No Iterations 5
linear solve U 91449
DICPBiCGStab:  Solving for p, Initial residual = 0.149646, Final residual = 9.67173e-05, No Iterations 90
linear solve p 424279
time step continuity errors : sum local = 7.24101e-08, global = 1.1998e-20, cumulative = 2.89298e-20
DICPBiCGStab:  Solving for p, Initial residual = 0.119424, Final residual = 9.62954e-05, No Iterations 79
linear solve p 381260
time step continuity errors : sum local = 1.03341e-07, global = -1.13942e-20, cumulative = 1.75356e-20
ExecutionTime = 4.25 s  ClockTime = 5 s

Time = 0.005

Courant Number mean: 0.0552671 max: 0.438882
DILUPBiCGStab:  Solving for Ux, Initial residual = 0.023337, Final residual = 1.17453e-06, No Iterations 5
DILUPBiCGStab:  Solving for Uy, Initial residual = 0.0442865, Final residual = 2.70351e-06, No Iterations 5
DILUPBiCGStab:  Solving for Uz, Initial residual = 0.0890282, Final residual = 1.09266e-05, No Iterations 5
linear solve U 91807
DICPBiCGStab:  Solving for p, Initial residual = 0.0763257, Final residual = 5.26871e-05, No Iterations 91
linear solve p 430281
time step continuity errors : sum local = 3.07179e-08, global = 7.3141e-21, cumulative = 2.48497e-20
DICPBiCGStab:  Solving for p, Initial residual = 0.0630491, Final residual = 9.85753e-05, No Iterations 89
linear solve p 434202
time step continuity errors : sum local = 6.71761e-08, global = 9.6522e-21, cumulative = 3.45019e-20
ExecutionTime = 5.25 s  ClockTime = 6 s

Time = 0.006

Courant Number mean: 0.0598393 max: 0.444775
DILUPBiCGStab:  Solving for Ux, Initial residual = 0.0176063, Final residual = 8.24919e-07, No Iterations 5
DILUPBiCGStab:  Solving for Uy, Initial residual = 0.0341066, Final residual = 1.28911e-06, No Iterations 5
DILUPBiCGStab:  Solving for Uz, Initial residual = 0.0673363, Final residual = 6.20876e-06, No Iterations 5
linear solve U 93306
DICPBiCGStab:  Solving for p, Initial residual = 0.0477015, Final residual = 9.5348e-05, No Iterations 90
linear solve p 438083
time step continuity errors : sum local = 1.00621e-07, global = -1.80776e-21, cumulative = 3.26941e-20
DICPBiCGStab:  Solving for p, Initial residual = 0.0395675, Final residual = 9.46466e-05, No Iterations 82
linear solve p 393911
time step continuity errors : sum local = 1.00401e-07, global = -1.47873e-20, cumulative = 1.79068e-20
ExecutionTime = 6.22 s  ClockTime = 7 s

Time = 0.007

Courant Number mean: 0.0635843 max: 0.448849
DILUPBiCGStab:  Solving for Ux, Initial residual = 0.0140588, Final residual = 6.43712e-07, No Iterations 5
DILUPBiCGStab:  Solving for Uy, Initial residual = 0.0272178, Final residual = 8.07044e-07, No Iterations 5
DILUPBiCGStab:  Solving for Uz, Initial residual = 0.0510697, Final residual = 2.82767e-06, No Iterations 5
linear solve U 91383
DICPBiCGStab:  Solving for p, Initial residual = 0.0313653, Final residual = 9.58836e-05, No Iterations 68
linear solve p 323580
time step continuity errors : sum local = 1.00786e-07, global = 4.13346e-21, cumulative = 2.20403e-20
DICPBiCGStab:  Solving for p, Initial residual = 0.0268041, Final residual = 8.66753e-05, No Iterations 35
linear solve p 167586
time step continuity errors : sum local = 7.30588e-08, global = 3.06217e-20, cumulative = 5.2662e-20
ExecutionTime = 6.86 s  ClockTime = 7 s

Time = 0.008

Courant Number mean: 0.0666975 max: 0.451853
DILUPBiCGStab:  Solving for Ux, Initial residual = 0.0115402, Final residual = 6.02734e-07, No Iterations 5
DILUPBiCGStab:  Solving for Uy, Initial residual = 0.0226192, Final residual = 5.9555e-07, No Iterations 5
DILUPBiCGStab:  Solving for Uz, Initial residual = 0.0429893, Final residual = 2.69786e-06, No Iterations 5
linear solve U 92216
DICPBiCGStab:  Solving for p, Initial residual = 0.0231202, Final residual = 9.46767e-05, No Iterations 35
linear solve p 166591
time step continuity errors : sum local = 5.0236e-08, global = -9.79395e-21, cumulative = 4.2868e-20
DICPBiCGStab:  Solving for p, Initial residual = 0.0201153, Final residual = 9.88554e-05, No Iterations 32
linear solve p 156544
time step continuity errors : sum local = 6.4385e-08, global = 4.93871e-21, cumulative = 4.78068e-20
ExecutionTime = 7.32 s  ClockTime = 8 s

Time = 0.009

Courant Number mean: 0.0693807 max: 0.45419
DILUPBiCGStab:  Solving for Ux, Initial residual = 0.0097139, Final residual = 4.49234e-07, No Iterations 5
DILUPBiCGStab:  Solving for Uy, Initial residual = 0.0191156, Final residual = 3.65816e-07, No Iterations 5
DILUPBiCGStab:  Solving for Uz, Initial residual = 0.037557, Final residual = 1.54549e-06, No Iterations 5
linear solve U 90414
DICPBiCGStab:  Solving for p, Initial residual = 0.0191193, Final residual = 9.54011e-05, No Iterations 36
linear solve p 172531
time step continuity errors : sum local = 8.62922e-08, global = -6.83844e-21, cumulative = 4.09683e-20
DICPBiCGStab:  Solving for p, Initial residual = 0.0169151, Final residual = 9.30853e-05, No Iterations 31
linear solve p 150573
time step continuity errors : sum local = 7.18276e-08, global = -1.4216e-20, cumulative = 2.67523e-20
ExecutionTime = 7.8 s  ClockTime = 8 s

Time = 0.01

Courant Number mean: 0.0717122 max: 0.456054
DILUPBiCGStab:  Solving for Ux, Initial residual = 0.00829459, Final residual = 3.62532e-07, No Iterations 5
DILUPBiCGStab:  Solving for Uy, Initial residual = 0.0164959, Final residual = 3.14243e-07, No Iterations 5
DILUPBiCGStab:  Solving for Uz, Initial residual = 0.0315526, Final residual = 1.25723e-06, No Iterations 5
linear solve U 91583
DICPBiCGStab:  Solving for p, Initial residual = 0.0157399, Final residual = 8.56309e-05, No Iterations 35
linear solve p 168503
time step continuity errors : sum local = 5.27609e-08, global = 7.37567e-22, cumulative = 2.74899e-20
DICPBiCGStab:  Solving for p, Initial residual = 0.0140361, Final residual = 9.28681e-05, No Iterations 31
linear solve p 147863
time step continuity errors : sum local = 6.41164e-08, global = -3.27861e-22, cumulative = 2.71621e-20
ExecutionTime = 8.25 s  ClockTime = 9 s

End

