/*---------------------------------------------------------------------------*\
  =========                 |
  \\      /  F ield         | OpenFOAM: The Open Source CFD Toolbox
   \\    /   O peration     | Website:  https://openfoam.org
    \\  /    A nd           | Version:  8
     \\/     M anipulation  |
\*---------------------------------------------------------------------------*/
Build  : 8-ef60d22ea792
Exec   : icoFoam
Date   : Jul 28 2021
Time   : 22:09:39
Host   : "uc2n441.localdomain"
PID    : 3230058
I/O    : uncollated
Case   : /pfs/data5/home/kit/scc/nq7776/code/OBR/lidDrivenCavity3D/Variation_mesh/15/Variation_matrix_solver/CG_NoPrecond_OMP/base
nProcs : 1
sigFpe : Enabling floating point exception trapping (FOAM_SIGFPE).
fileModificationChecking : Monitoring run-time modified files using timeStampMaster (fileModificationSkew 10)
allowSystemOperations : Allowing user-supplied system call operations

// * * * * * * * * * * * * * * * * * * * * * * * * * * * * * * * * * * * * * //
Create time

Create mesh for time = 0

Reading transportProperties

Reading field p

Reading field U

Reading/calculating face flux field phi


Starting time loop

Time = 0.001

Courant Number mean: 0 max: 0
DILUPBiCGStab:  Solving for Ux, Initial residual = 1, Final residual = 1.1028e-13, No Iterations 5
DILUPBiCGStab:  Solving for Uy:  solution singularity
DILUPBiCGStab:  Solving for Uz:  solution singularity
linear solve U 1319
[OGL LOG] init_host_sparsity_pattern : 1 ms
[OGL LOG] matrix not stored update host matrix
[OGL LOG] update_host_mtx : 0 ms
[OGL LOG] matrix is not yet sorted, compute sorting idxs
[OGL LOG] compute_sort : 21 ms
[OGL LOG] matrix is not yet sorted, sorting host matrix
[OGL LOG] sort_host_mtx_sparsity_pattern : 0 ms
[OGL LOG] sort_host_mtx : 0 ms
[OGL LOG] init_preconditioner : 0 ms
[OGL LOG] solve : 8 ms
noneompGKOCG:  Solving for p, Initial residual = 1, Final residual = 7.86493e-05, No Iterations 111
linear solve p 35979
time step continuity errors : sum local = 3.30156e-08, global = -3.93056e-21, cumulative = -3.93056e-21
[OGL LOG] init_host_sparsity_pattern : 0 ms
[OGL LOG] matrix not stored update host matrix
[OGL LOG] update_host_mtx : 0 ms
[OGL LOG] matrix is not yet sorted, sorting host matrix
[OGL LOG] sort_host_mtx_sparsity_pattern : 0 ms
[OGL LOG] sort_host_mtx : 0 ms
[OGL LOG] init_preconditioner : 0 ms
[OGL LOG] solve : 7 ms
noneompGKOCG:  Solving for p, Initial residual = 0.316802, Final residual = 9.21898e-05, No Iterations 105
linear solve p 10858
time step continuity errors : sum local = 6.77707e-08, global = -5.57938e-21, cumulative = -9.50994e-21
ExecutionTime = 0.18 s  ClockTime = 0 s

Time = 0.002

Courant Number mean: 0.0055944 max: 0.0357002
DILUPBiCGStab:  Solving for Ux, Initial residual = 0.242392, Final residual = 1.13973e-14, No Iterations 5
DILUPBiCGStab:  Solving for Uy, Initial residual = 0.296209, Final residual = 1.1243e-14, No Iterations 5
DILUPBiCGStab:  Solving for Uz, Initial residual = 0.685355, Final residual = 3.43272e-14, No Iterations 5
linear solve U 2098
[OGL LOG] init_host_sparsity_pattern : 0 ms
[OGL LOG] matrix not stored update host matrix
[OGL LOG] update_host_mtx : 0 ms
[OGL LOG] matrix is not yet sorted, sorting host matrix
[OGL LOG] sort_host_mtx_sparsity_pattern : 0 ms
[OGL LOG] sort_host_mtx : 0 ms
[OGL LOG] init_preconditioner : 0 ms
[OGL LOG] solve : 7 ms
noneompGKOCG:  Solving for p, Initial residual = 0.156983, Final residual = 8.61734e-05, No Iterations 102
linear solve p 10757
time step continuity errors : sum local = 6.18294e-08, global = -8.60371e-21, cumulative = -1.81137e-20
[OGL LOG] init_host_sparsity_pattern : 0 ms
[OGL LOG] matrix not stored update host matrix
[OGL LOG] update_host_mtx : 0 ms
[OGL LOG] matrix is not yet sorted, sorting host matrix
[OGL LOG] sort_host_mtx_sparsity_pattern : 0 ms
[OGL LOG] sort_host_mtx : 0 ms
[OGL LOG] init_preconditioner : 0 ms
[OGL LOG] solve : 7 ms
noneompGKOCG:  Solving for p, Initial residual = 0.0605768, Final residual = 7.86459e-05, No Iterations 97
linear solve p 10221
time step continuity errors : sum local = 6.13387e-08, global = -6.81628e-21, cumulative = -2.49299e-20
ExecutionTime = 0.3 s  ClockTime = 0 s

Time = 0.003

Courant Number mean: 0.00940318 max: 0.0587296
DILUPBiCGStab:  Solving for Ux, Initial residual = 0.117973, Final residual = 5.3438e-15, No Iterations 5
DILUPBiCGStab:  Solving for Uy, Initial residual = 0.148717, Final residual = 5.34839e-15, No Iterations 5
DILUPBiCGStab:  Solving for Uz, Initial residual = 0.318995, Final residual = 1.46959e-14, No Iterations 5
linear solve U 1967
[OGL LOG] init_host_sparsity_pattern : 0 ms
[OGL LOG] matrix not stored update host matrix
[OGL LOG] update_host_mtx : 0 ms
[OGL LOG] matrix is not yet sorted, sorting host matrix
[OGL LOG] sort_host_mtx_sparsity_pattern : 0 ms
[OGL LOG] sort_host_mtx : 0 ms
[OGL LOG] init_preconditioner : 0 ms
[OGL LOG] solve : 7 ms
noneompGKOCG:  Solving for p, Initial residual = 0.0758742, Final residual = 7.60859e-05, No Iterations 99
linear solve p 10253
time step continuity errors : sum local = 6.10608e-08, global = -3.43542e-20, cumulative = -5.92841e-20
[OGL LOG] init_host_sparsity_pattern : 0 ms
[OGL LOG] matrix not stored update host matrix
[OGL LOG] update_host_mtx : 0 ms
[OGL LOG] matrix is not yet sorted, sorting host matrix
[OGL LOG] sort_host_mtx_sparsity_pattern : 0 ms
[OGL LOG] sort_host_mtx : 0 ms
[OGL LOG] init_preconditioner : 0 ms
[OGL LOG] solve : 7 ms
noneompGKOCG:  Solving for p, Initial residual = 0.0340604, Final residual = 9.33074e-05, No Iterations 95
linear solve p 10013
time step continuity errors : sum local = 7.8224e-08, global = -5.24288e-21, cumulative = -6.4527e-20
ExecutionTime = 0.41 s  ClockTime = 0 s

Time = 0.004

Courant Number mean: 0.0121906 max: 0.0737268
DILUPBiCGStab:  Solving for Ux, Initial residual = 0.0723349, Final residual = 2.98994e-15, No Iterations 5
DILUPBiCGStab:  Solving for Uy, Initial residual = 0.0916584, Final residual = 3.02127e-15, No Iterations 5
DILUPBiCGStab:  Solving for Uz, Initial residual = 0.18237, Final residual = 7.94726e-15, No Iterations 5
linear solve U 1967
[OGL LOG] init_host_sparsity_pattern : 0 ms
[OGL LOG] matrix not stored update host matrix
[OGL LOG] update_host_mtx : 0 ms
[OGL LOG] matrix is not yet sorted, sorting host matrix
[OGL LOG] sort_host_mtx_sparsity_pattern : 0 ms
[OGL LOG] sort_host_mtx : 0 ms
[OGL LOG] init_preconditioner : 0 ms
[OGL LOG] solve : 7 ms
noneompGKOCG:  Solving for p, Initial residual = 0.0491882, Final residual = 7.41712e-05, No Iterations 98
linear solve p 10270
time step continuity errors : sum local = 6.32728e-08, global = -1.71375e-20, cumulative = -8.16645e-20
[OGL LOG] init_host_sparsity_pattern : 0 ms
[OGL LOG] matrix not stored update host matrix
[OGL LOG] update_host_mtx : 0 ms
[OGL LOG] matrix is not yet sorted, sorting host matrix
[OGL LOG] sort_host_mtx_sparsity_pattern : 0 ms
[OGL LOG] sort_host_mtx : 0 ms
[OGL LOG] init_preconditioner : 0 ms
[OGL LOG] solve : 7 ms
noneompGKOCG:  Solving for p, Initial residual = 0.0220846, Final residual = 9.48724e-05, No Iterations 94
linear solve p 9899
time step continuity errors : sum local = 8.30206e-08, global = -1.96038e-20, cumulative = -1.01268e-19
ExecutionTime = 0.52 s  ClockTime = 0 s

Time = 0.005

Courant Number mean: 0.014306 max: 0.0838051
DILUPBiCGStab:  Solving for Ux, Initial residual = 0.0485641, Final residual = 1.79907e-15, No Iterations 5
DILUPBiCGStab:  Solving for Uy, Initial residual = 0.0627378, Final residual = 1.74762e-15, No Iterations 5
DILUPBiCGStab:  Solving for Uz, Initial residual = 0.129708, Final residual = 5.47689e-15, No Iterations 5
linear solve U 1987
[OGL LOG] init_host_sparsity_pattern : 0 ms
[OGL LOG] matrix not stored update host matrix
[OGL LOG] update_host_mtx : 0 ms
[OGL LOG] matrix is not yet sorted, sorting host matrix
[OGL LOG] sort_host_mtx_sparsity_pattern : 0 ms
[OGL LOG] sort_host_mtx : 0 ms
[OGL LOG] init_preconditioner : 0 ms
[OGL LOG] solve : 7 ms
noneompGKOCG:  Solving for p, Initial residual = 0.0359266, Final residual = 8.83184e-05, No Iterations 97
linear solve p 10096
time step continuity errors : sum local = 7.83122e-08, global = -5.28941e-21, cumulative = -1.06558e-19
[OGL LOG] init_host_sparsity_pattern : 0 ms
[OGL LOG] matrix not stored update host matrix
[OGL LOG] update_host_mtx : 0 ms
[OGL LOG] matrix is not yet sorted, sorting host matrix
[OGL LOG] sort_host_mtx_sparsity_pattern : 0 ms
[OGL LOG] sort_host_mtx : 0 ms
[OGL LOG] init_preconditioner : 0 ms
[OGL LOG] solve : 7 ms
noneompGKOCG:  Solving for p, Initial residual = 0.0152371, Final residual = 9.72471e-05, No Iterations 93
linear solve p 10320
time step continuity errors : sum local = 8.77689e-08, global = -1.5755e-20, cumulative = -1.22313e-19
ExecutionTime = 0.63 s  ClockTime = 0 s

Time = 0.006

Courant Number mean: 0.0159484 max: 0.0908032
DILUPBiCGStab:  Solving for Ux, Initial residual = 0.0353494, Final residual = 1.17443e-15, No Iterations 5
DILUPBiCGStab:  Solving for Uy, Initial residual = 0.0460978, Final residual = 1.06313e-15, No Iterations 5
DILUPBiCGStab:  Solving for Uz, Initial residual = 0.0994178, Final residual = 3.99472e-15, No Iterations 5
linear solve U 2037
[OGL LOG] init_host_sparsity_pattern : 0 ms
[OGL LOG] matrix not stored update host matrix
[OGL LOG] update_host_mtx : 0 ms
[OGL LOG] matrix is not yet sorted, sorting host matrix
[OGL LOG] sort_host_mtx_sparsity_pattern : 0 ms
[OGL LOG] sort_host_mtx : 0 ms
[OGL LOG] init_preconditioner : 0 ms
[OGL LOG] solve : 7 ms
noneompGKOCG:  Solving for p, Initial residual = 0.0288199, Final residual = 7.57248e-05, No Iterations 97
linear solve p 10158
time step continuity errors : sum local = 6.93601e-08, global = 2.28613e-21, cumulative = -1.20027e-19
[OGL LOG] init_host_sparsity_pattern : 0 ms
[OGL LOG] matrix not stored update host matrix
[OGL LOG] update_host_mtx : 0 ms
[OGL LOG] matrix is not yet sorted, sorting host matrix
[OGL LOG] sort_host_mtx_sparsity_pattern : 0 ms
[OGL LOG] sort_host_mtx : 0 ms
[OGL LOG] init_preconditioner : 0 ms
[OGL LOG] solve : 6 ms
noneompGKOCG:  Solving for p, Initial residual = 0.0110072, Final residual = 9.56882e-05, No Iterations 92
linear solve p 9542
time step continuity errors : sum local = 8.90371e-08, global = 6.36272e-21, cumulative = -1.13664e-19
ExecutionTime = 0.75 s  ClockTime = 0 s

Time = 0.007

Courant Number mean: 0.0172719 max: 0.0958251
DILUPBiCGStab:  Solving for Ux, Initial residual = 0.0271631, Final residual = 8.70861e-16, No Iterations 5
DILUPBiCGStab:  Solving for Uy, Initial residual = 0.0356267, Final residual = 7.40822e-16, No Iterations 5
DILUPBiCGStab:  Solving for Uz, Initial residual = 0.0794112, Final residual = 3.11964e-15, No Iterations 5
linear solve U 1965
[OGL LOG] init_host_sparsity_pattern : 0 ms
[OGL LOG] matrix not stored update host matrix
[OGL LOG] update_host_mtx : 0 ms
[OGL LOG] matrix is not yet sorted, sorting host matrix
[OGL LOG] sort_host_mtx_sparsity_pattern : 0 ms
[OGL LOG] sort_host_mtx : 0 ms
[OGL LOG] init_preconditioner : 0 ms
[OGL LOG] solve : 7 ms
noneompGKOCG:  Solving for p, Initial residual = 0.0217461, Final residual = 9.43029e-05, No Iterations 96
linear solve p 10012
time step continuity errors : sum local = 8.8534e-08, global = 7.09773e-22, cumulative = -1.12954e-19
[OGL LOG] init_host_sparsity_pattern : 0 ms
[OGL LOG] matrix not stored update host matrix
[OGL LOG] update_host_mtx : 0 ms
[OGL LOG] matrix is not yet sorted, sorting host matrix
[OGL LOG] sort_host_mtx_sparsity_pattern : 0 ms
[OGL LOG] sort_host_mtx : 0 ms
[OGL LOG] init_preconditioner : 0 ms
[OGL LOG] solve : 3 ms
noneompGKOCG:  Solving for p, Initial residual = 0.0086004, Final residual = 9.65271e-05, No Iterations 40
linear solve p 5874
time step continuity errors : sum local = 1.17268e-07, global = 3.36354e-20, cumulative = -7.93186e-20
ExecutionTime = 0.84 s  ClockTime = 0 s

Time = 0.008

Courant Number mean: 0.0183554 max: 0.0995502
DILUPBiCGStab:  Solving for Ux, Initial residual = 0.0216524, Final residual = 6.3904e-16, No Iterations 5
DILUPBiCGStab:  Solving for Uy, Initial residual = 0.0286205, Final residual = 5.78747e-16, No Iterations 5
DILUPBiCGStab:  Solving for Uz, Initial residual = 0.0649395, Final residual = 2.48992e-15, No Iterations 5
linear solve U 1969
[OGL LOG] init_host_sparsity_pattern : 0 ms
[OGL LOG] matrix not stored update host matrix
[OGL LOG] update_host_mtx : 0 ms
[OGL LOG] matrix is not yet sorted, sorting host matrix
[OGL LOG] sort_host_mtx_sparsity_pattern : 0 ms
[OGL LOG] sort_host_mtx : 0 ms
[OGL LOG] init_preconditioner : 0 ms
[OGL LOG] solve : 3 ms
noneompGKOCG:  Solving for p, Initial residual = 0.0163422, Final residual = 8.33811e-05, No Iterations 44
linear solve p 6368
time step continuity errors : sum local = 8.1644e-08, global = -6.2175e-21, cumulative = -8.55361e-20
[OGL LOG] init_host_sparsity_pattern : 0 ms
[OGL LOG] matrix not stored update host matrix
[OGL LOG] update_host_mtx : 0 ms
[OGL LOG] matrix is not yet sorted, sorting host matrix
[OGL LOG] sort_host_mtx_sparsity_pattern : 0 ms
[OGL LOG] sort_host_mtx : 0 ms
[OGL LOG] init_preconditioner : 0 ms
[OGL LOG] solve : 2 ms
noneompGKOCG:  Solving for p, Initial residual = 0.0066532, Final residual = 9.8627e-05, No Iterations 38
linear solve p 5641
time step continuity errors : sum local = 1.09718e-07, global = -3.85823e-21, cumulative = -8.93943e-20
ExecutionTime = 0.91 s  ClockTime = 0 s

Time = 0.009

Courant Number mean: 0.0192552 max: 0.102395
DILUPBiCGStab:  Solving for Ux, Initial residual = 0.0176812, Final residual = 4.36954e-16, No Iterations 5
DILUPBiCGStab:  Solving for Uy, Initial residual = 0.0236225, Final residual = 4.83078e-16, No Iterations 5
DILUPBiCGStab:  Solving for Uz, Initial residual = 0.0544316, Final residual = 1.88716e-15, No Iterations 5
linear solve U 1972
[OGL LOG] init_host_sparsity_pattern : 0 ms
[OGL LOG] matrix not stored update host matrix
[OGL LOG] update_host_mtx : 0 ms
[OGL LOG] matrix is not yet sorted, sorting host matrix
[OGL LOG] sort_host_mtx_sparsity_pattern : 0 ms
[OGL LOG] sort_host_mtx : 0 ms
[OGL LOG] init_preconditioner : 0 ms
[OGL LOG] solve : 3 ms
noneompGKOCG:  Solving for p, Initial residual = 0.0132677, Final residual = 7.84323e-05, No Iterations 43
linear solve p 6209
time step continuity errors : sum local = 9.24632e-08, global = 2.21805e-20, cumulative = -6.72138e-20
[OGL LOG] init_host_sparsity_pattern : 0 ms
[OGL LOG] matrix not stored update host matrix
[OGL LOG] update_host_mtx : 0 ms
[OGL LOG] matrix is not yet sorted, sorting host matrix
[OGL LOG] sort_host_mtx_sparsity_pattern : 0 ms
[OGL LOG] sort_host_mtx : 0 ms
[OGL LOG] init_preconditioner : 0 ms
[OGL LOG] solve : 2 ms
noneompGKOCG:  Solving for p, Initial residual = 0.00540237, Final residual = 9.8516e-05, No Iterations 36
linear solve p 5637
time step continuity errors : sum local = 1.00226e-07, global = 4.30854e-20, cumulative = -2.41284e-20
ExecutionTime = 0.98 s  ClockTime = 0 s

Time = 0.01

Courant Number mean: 0.0200143 max: 0.104627
DILUPBiCGStab:  Solving for Ux, Initial residual = 0.01473, Final residual = 2.84335e-16, No Iterations 5
DILUPBiCGStab:  Solving for Uy, Initial residual = 0.0199283, Final residual = 4.01646e-16, No Iterations 5
DILUPBiCGStab:  Solving for Uz, Initial residual = 0.046327, Final residual = 1.54041e-15, No Iterations 5
linear solve U 1969
[OGL LOG] init_host_sparsity_pattern : 0 ms
[OGL LOG] matrix not stored update host matrix
[OGL LOG] update_host_mtx : 0 ms
[OGL LOG] matrix is not yet sorted, sorting host matrix
[OGL LOG] sort_host_mtx_sparsity_pattern : 0 ms
[OGL LOG] sort_host_mtx : 0 ms
[OGL LOG] init_preconditioner : 0 ms
[OGL LOG] solve : 3 ms
noneompGKOCG:  Solving for p, Initial residual = 0.0111407, Final residual = 8.04243e-05, No Iterations 43
linear solve p 6237
time step continuity errors : sum local = 1.10317e-07, global = -4.04967e-21, cumulative = -2.81781e-20
[OGL LOG] init_host_sparsity_pattern : 0 ms
[OGL LOG] matrix not stored update host matrix
[OGL LOG] update_host_mtx : 0 ms
[OGL LOG] matrix is not yet sorted, sorting host matrix
[OGL LOG] sort_host_mtx_sparsity_pattern : 0 ms
[OGL LOG] sort_host_mtx : 0 ms
[OGL LOG] init_preconditioner : 0 ms
[OGL LOG] solve : 2 ms
noneompGKOCG:  Solving for p, Initial residual = 0.00449656, Final residual = 9.29797e-05, No Iterations 36
linear solve p 5642
time step continuity errors : sum local = 1.12609e-07, global = -1.62582e-20, cumulative = -4.44363e-20
ExecutionTime = 1.04 s  ClockTime = 0 s

End

