/*---------------------------------------------------------------------------*\
  =========                 |
  \\      /  F ield         | OpenFOAM: The Open Source CFD Toolbox
   \\    /   O peration     | Website:  https://openfoam.org
    \\  /    A nd           | Version:  8
     \\/     M anipulation  |
\*---------------------------------------------------------------------------*/
Build  : 8-14d69e1ee166
Exec   : icoFoam
Date   : Jul 29 2021
Time   : 08:35:01
Host   : "guyot.icl.utk.edu"
PID    : 147806
I/O    : uncollated
Case   : /home/greole/code/OBR/lidDrivenCavity3D/Variation_mesh/10/Variation_matrix_solver/CG_NoPrecond_Serial/base
nProcs : 1
sigFpe : Enabling floating point exception trapping (FOAM_SIGFPE).
fileModificationChecking : Monitoring run-time modified files using timeStampMaster (fileModificationSkew 10)
allowSystemOperations : Allowing user-supplied system call operations

// * * * * * * * * * * * * * * * * * * * * * * * * * * * * * * * * * * * * * //
Create time

Create mesh for time = 0

Reading transportProperties

Reading field p

Reading field U

Reading/calculating face flux field phi


Starting time loop

Time = 0.001

Courant Number mean: 0 max: 0
DILUPBiCGStab:  Solving for Ux, Initial residual = 1, Final residual = 8.04173e-19, No Iterations 5
DILUPBiCGStab:  Solving for Uy:  solution singularity
DILUPBiCGStab:  Solving for Uz:  solution singularity
linear solve U 493
nonePCG:  Solving for p, Initial residual = 1, Final residual = 6.08555e-05, No Iterations 71
linear solve p 696
time step continuity errors : sum local = 1.9926e-08, global = -1.02289e-20, cumulative = -1.02289e-20
nonePCG:  Solving for p, Initial residual = 0.190401, Final residual = 5.72125e-05, No Iterations 66
linear solve p 633
time step continuity errors : sum local = 3.47615e-08, global = 1.64009e-21, cumulative = -8.58877e-21
ExecutionTime = 0.1 s  ClockTime = 0 s

Time = 0.002

Courant Number mean: 0.00276862 max: 0.0123847
DILUPBiCGStab:  Solving for Ux, Initial residual = 0.271635, Final residual = 6.92824e-20, No Iterations 5
DILUPBiCGStab:  Solving for Uy, Initial residual = 0.305256, Final residual = 9.73395e-20, No Iterations 5
DILUPBiCGStab:  Solving for Uz, Initial residual = 0.479815, Final residual = 1.66764e-19, No Iterations 5
linear solve U 631
nonePCG:  Solving for p, Initial residual = 0.124808, Final residual = 8.18505e-05, No Iterations 63
linear solve p 597
time step continuity errors : sum local = 5.09953e-08, global = -2.59093e-20, cumulative = -3.4498e-20
nonePCG:  Solving for p, Initial residual = 0.0212462, Final residual = 8.63254e-05, No Iterations 58
linear solve p 552
time step continuity errors : sum local = 5.91385e-08, global = -4.02465e-21, cumulative = -3.85227e-20
ExecutionTime = 0.1 s  ClockTime = 0 s

Time = 0.003

Courant Number mean: 0.00491749 max: 0.022139
DILUPBiCGStab:  Solving for Ux, Initial residual = 0.137911, Final residual = 3.70173e-20, No Iterations 5
DILUPBiCGStab:  Solving for Uy, Initial residual = 0.165975, Final residual = 4.87379e-20, No Iterations 5
DILUPBiCGStab:  Solving for Uz, Initial residual = 0.287865, Final residual = 9.87219e-20, No Iterations 5
linear solve U 624
nonePCG:  Solving for p, Initial residual = 0.0634486, Final residual = 7.759e-05, No Iterations 62
linear solve p 584
time step continuity errors : sum local = 5.5685e-08, global = 3.48026e-21, cumulative = -3.50424e-20
nonePCG:  Solving for p, Initial residual = 0.0132165, Final residual = 9.71657e-05, No Iterations 56
linear solve p 539
time step continuity errors : sum local = 7.32251e-08, global = 8.42504e-21, cumulative = -2.66174e-20
ExecutionTime = 0.1 s  ClockTime = 0 s

Time = 0.004

Courant Number mean: 0.00660393 max: 0.0298428
DILUPBiCGStab:  Solving for Ux, Initial residual = 0.0843947, Final residual = 2.35687e-20, No Iterations 5
DILUPBiCGStab:  Solving for Uy, Initial residual = 0.107803, Final residual = 2.84375e-20, No Iterations 5
DILUPBiCGStab:  Solving for Uz, Initial residual = 0.19298, Final residual = 7.68159e-20, No Iterations 5
linear solve U 633
nonePCG:  Solving for p, Initial residual = 0.0390187, Final residual = 9.77797e-05, No Iterations 61
linear solve p 575
time step continuity errors : sum local = 7.57213e-08, global = -2.00558e-20, cumulative = -4.66732e-20
nonePCG:  Solving for p, Initial residual = 0.00956074, Final residual = 9.96352e-05, No Iterations 55
linear solve p 521
time step continuity errors : sum local = 7.9576e-08, global = 1.5496e-20, cumulative = -3.11772e-20
ExecutionTime = 0.11 s  ClockTime = 0 s

Time = 0.005

Courant Number mean: 0.0079444 max: 0.0359757
DILUPBiCGStab:  Solving for Ux, Initial residual = 0.0590438, Final residual = 1.62624e-20, No Iterations 5
DILUPBiCGStab:  Solving for Uy, Initial residual = 0.0764358, Final residual = 1.78286e-20, No Iterations 5
DILUPBiCGStab:  Solving for Uz, Initial residual = 0.150501, Final residual = 6.27776e-20, No Iterations 5
linear solve U 629
nonePCG:  Solving for p, Initial residual = 0.0280837, Final residual = 8.04294e-05, No Iterations 61
linear solve p 577
time step continuity errors : sum local = 6.53913e-08, global = 4.28616e-20, cumulative = 1.16844e-20
nonePCG:  Solving for p, Initial residual = 0.00733699, Final residual = 9.77071e-05, No Iterations 54
linear solve p 520
time step continuity errors : sum local = 8.10912e-08, global = 1.03302e-20, cumulative = 2.20146e-20
ExecutionTime = 0.11 s  ClockTime = 0 s

Time = 0.006

Courant Number mean: 0.0090242 max: 0.0408976
DILUPBiCGStab:  Solving for Ux, Initial residual = 0.044426, Final residual = 1.17383e-20, No Iterations 5
DILUPBiCGStab:  Solving for Uy, Initial residual = 0.0572635, Final residual = 1.1726e-20, No Iterations 5
DILUPBiCGStab:  Solving for Uz, Initial residual = 0.122505, Final residual = 5.09512e-20, No Iterations 5
linear solve U 625
nonePCG:  Solving for p, Initial residual = 0.0228152, Final residual = 9.08772e-05, No Iterations 60
linear solve p 567
time step continuity errors : sum local = 7.64467e-08, global = -2.26023e-20, cumulative = -5.8766e-22
nonePCG:  Solving for p, Initial residual = 0.00581412, Final residual = 9.82017e-05, No Iterations 25
linear solve p 260
time step continuity errors : sum local = 1.14379e-07, global = -3.75842e-20, cumulative = -3.81719e-20
ExecutionTime = 0.11 s  ClockTime = 0 s

Time = 0.007

Courant Number mean: 0.00990689 max: 0.04488
DILUPBiCGStab:  Solving for Ux, Initial residual = 0.034895, Final residual = 8.75714e-21, No Iterations 5
DILUPBiCGStab:  Solving for Uy, Initial residual = 0.044608, Final residual = 8.05666e-21, No Iterations 5
DILUPBiCGStab:  Solving for Uz, Initial residual = 0.102196, Final residual = 4.24686e-20, No Iterations 5
linear solve U 629
nonePCG:  Solving for p, Initial residual = 0.0195335, Final residual = 9.46942e-05, No Iterations 35
linear solve p 345
time step continuity errors : sum local = 1.09155e-07, global = -3.92249e-20, cumulative = -7.73967e-20
nonePCG:  Solving for p, Initial residual = 0.00477225, Final residual = 8.70433e-05, No Iterations 23
linear solve p 238
time step continuity errors : sum local = 8.58778e-08, global = 2.75732e-20, cumulative = -4.98235e-20
ExecutionTime = 0.11 s  ClockTime = 0 s

Time = 0.008

Courant Number mean: 0.0106744 max: 0.0481313
DILUPBiCGStab:  Solving for Ux, Initial residual = 0.0282143, Final residual = 6.85125e-21, No Iterations 5
DILUPBiCGStab:  Solving for Uy, Initial residual = 0.0357516, Final residual = 5.92628e-21, No Iterations 5
DILUPBiCGStab:  Solving for Uz, Initial residual = 0.0867999, Final residual = 3.49827e-20, No Iterations 5
linear solve U 626
nonePCG:  Solving for p, Initial residual = 0.0168063, Final residual = 8.05158e-05, No Iterations 58
linear solve p 554
time step continuity errors : sum local = 7.11456e-08, global = -3.83096e-20, cumulative = -8.81331e-20
nonePCG:  Solving for p, Initial residual = 0.00387818, Final residual = 9.20237e-05, No Iterations 22
linear solve p 232
time step continuity errors : sum local = 1.06509e-07, global = 5.27369e-21, cumulative = -8.28594e-20
ExecutionTime = 0.11 s  ClockTime = 0 s

Time = 0.009

Courant Number mean: 0.0113437 max: 0.0508022
DILUPBiCGStab:  Solving for Ux, Initial residual = 0.0231943, Final residual = 5.57756e-21, No Iterations 5
DILUPBiCGStab:  Solving for Uy, Initial residual = 0.029373, Final residual = 4.75167e-21, No Iterations 5
DILUPBiCGStab:  Solving for Uz, Initial residual = 0.0734667, Final residual = 2.94354e-20, No Iterations 5
linear solve U 624
nonePCG:  Solving for p, Initial residual = 0.0151159, Final residual = 9.51053e-05, No Iterations 28
linear solve p 292
time step continuity errors : sum local = 9.6553e-08, global = 1.49852e-20, cumulative = -6.78742e-20
nonePCG:  Solving for p, Initial residual = 0.0033535, Final residual = 7.70334e-05, No Iterations 22
linear solve p 229
time step continuity errors : sum local = 7.0997e-08, global = 1.98767e-20, cumulative = -4.79975e-20
ExecutionTime = 0.12 s  ClockTime = 0 s

Time = 0.01

Courant Number mean: 0.011944 max: 0.0530169
DILUPBiCGStab:  Solving for Ux, Initial residual = 0.0193042, Final residual = 4.68954e-21, No Iterations 5
DILUPBiCGStab:  Solving for Uy, Initial residual = 0.0245434, Final residual = 4.13277e-21, No Iterations 5
DILUPBiCGStab:  Solving for Uz, Initial residual = 0.0638233, Final residual = 2.57302e-20, No Iterations 5
linear solve U 628
nonePCG:  Solving for p, Initial residual = 0.0134891, Final residual = 7.87043e-05, No Iterations 57
linear solve p 544
time step continuity errors : sum local = 7.16107e-08, global = 7.02904e-21, cumulative = -4.09684e-20
nonePCG:  Solving for p, Initial residual = 0.00273051, Final residual = 7.0409e-05, No Iterations 22
linear solve p 230
time step continuity errors : sum local = 8.01891e-08, global = 7.93389e-21, cumulative = -3.30346e-20
ExecutionTime = 0.12 s  ClockTime = 0 s

End

