/*---------------------------------------------------------------------------*\
  =========                 |
  \\      /  F ield         | OpenFOAM: The Open Source CFD Toolbox
   \\    /   O peration     | Website:  https://openfoam.org
    \\  /    A nd           | Version:  8
     \\/     M anipulation  |
\*---------------------------------------------------------------------------*/
Build  : 8-ef60d22ea792
Exec   : icoFoam
Date   : Jul 28 2021
Time   : 18:25:56
Host   : "nla-gpu2.ianm.kit.edu"
PID    : 1588010
I/O    : uncollated
Case   : /home/greole/code/OBR/lidDrivenCavity3D/Variation_mesh/20/Variation_matrix_solver/BiCGStab_DIC_Serial/base
nProcs : 1
sigFpe : Enabling floating point exception trapping (FOAM_SIGFPE).
fileModificationChecking : Monitoring run-time modified files using timeStampMaster (fileModificationSkew 10)
allowSystemOperations : Allowing user-supplied system call operations

// * * * * * * * * * * * * * * * * * * * * * * * * * * * * * * * * * * * * * //
Create time

Create mesh for time = 0

Reading transportProperties

Reading field p

Reading field U

Reading/calculating face flux field phi


Starting time loop

Time = 0.001

Courant Number mean: 0 max: 0
DILUPBiCGStab:  Solving for Ux, Initial residual = 1, Final residual = 1.12203e-10, No Iterations 5
DILUPBiCGStab:  Solving for Uy:  solution singularity
DILUPBiCGStab:  Solving for Uz:  solution singularity
linear solve U 2968
DICPBiCGStab:  Solving for p, Initial residual = 1, Final residual = 9.01625e-05, No Iterations 37
linear solve p 11457
time step continuity errors : sum local = 4.49338e-08, global = -1.09767e-21, cumulative = -1.09767e-21
DICPBiCGStab:  Solving for p, Initial residual = 0.411869, Final residual = 4.07278e-05, No Iterations 37
linear solve p 10314
time step continuity errors : sum local = 3.69072e-08, global = -1.72645e-20, cumulative = -1.83622e-20
ExecutionTime = 0.12 s  ClockTime = 0 s

Time = 0.002

Courant Number mean: 0.00876194 max: 0.068284
DILUPBiCGStab:  Solving for Ux, Initial residual = 0.22532, Final residual = 1.40292e-11, No Iterations 5
DILUPBiCGStab:  Solving for Uy, Initial residual = 0.289653, Final residual = 1.19234e-11, No Iterations 5
DILUPBiCGStab:  Solving for Uz, Initial residual = 0.823689, Final residual = 4.16144e-11, No Iterations 5
linear solve U 5211
DICPBiCGStab:  Solving for p, Initial residual = 0.212782, Final residual = 7.07632e-05, No Iterations 36
linear solve p 9984
time step continuity errors : sum local = 1.05614e-07, global = 1.06559e-20, cumulative = -7.70622e-21
DICPBiCGStab:  Solving for p, Initial residual = 0.123044, Final residual = 9.00463e-05, No Iterations 34
linear solve p 9462
time step continuity errors : sum local = 8.77812e-08, global = -2.38211e-20, cumulative = -3.15274e-20
ExecutionTime = 0.15 s  ClockTime = 0 s

Time = 0.003

Courant Number mean: 0.0142443 max: 0.104363
DILUPBiCGStab:  Solving for Ux, Initial residual = 0.102649, Final residual = 5.81791e-12, No Iterations 5
DILUPBiCGStab:  Solving for Uy, Initial residual = 0.135021, Final residual = 5.20338e-12, No Iterations 5
DILUPBiCGStab:  Solving for Uz, Initial residual = 0.297356, Final residual = 1.48267e-11, No Iterations 5
linear solve U 5112
DICPBiCGStab:  Solving for p, Initial residual = 0.0915042, Final residual = 7.57453e-05, No Iterations 33
linear solve p 9166
time step continuity errors : sum local = 7.35552e-08, global = -1.81599e-20, cumulative = -4.96873e-20
DICPBiCGStab:  Solving for p, Initial residual = 0.0549338, Final residual = 8.88218e-05, No Iterations 33
linear solve p 9132
time step continuity errors : sum local = 9.81082e-08, global = 1.75619e-20, cumulative = -3.21254e-20
ExecutionTime = 0.19 s  ClockTime = 0 s

Time = 0.004

Courant Number mean: 0.0178686 max: 0.123854
DILUPBiCGStab:  Solving for Ux, Initial residual = 0.060408, Final residual = 2.83895e-12, No Iterations 5
DILUPBiCGStab:  Solving for Uy, Initial residual = 0.0809847, Final residual = 2.51539e-12, No Iterations 5
DILUPBiCGStab:  Solving for Uz, Initial residual = 0.156577, Final residual = 7.28312e-12, No Iterations 5
linear solve U 5092
DICPBiCGStab:  Solving for p, Initial residual = 0.0543455, Final residual = 7.82284e-05, No Iterations 14
linear solve p 3925
time step continuity errors : sum local = 1.10182e-07, global = -8.41429e-21, cumulative = -4.05397e-20
DICPBiCGStab:  Solving for p, Initial residual = 0.0315001, Final residual = 6.20422e-05, No Iterations 13
linear solve p 3689
time step continuity errors : sum local = 5.75723e-08, global = 2.70633e-21, cumulative = -3.78334e-20
ExecutionTime = 0.2 s  ClockTime = 0 s

Time = 0.005

Courant Number mean: 0.0204635 max: 0.135216
DILUPBiCGStab:  Solving for Ux, Initial residual = 0.0403814, Final residual = 1.59994e-12, No Iterations 5
DILUPBiCGStab:  Solving for Uy, Initial residual = 0.0549885, Final residual = 1.29638e-12, No Iterations 5
DILUPBiCGStab:  Solving for Uz, Initial residual = 0.10694, Final residual = 3.39619e-12, No Iterations 5
linear solve U 5090
DICPBiCGStab:  Solving for p, Initial residual = 0.0358587, Final residual = 9.90133e-05, No Iterations 13
linear solve p 3648
time step continuity errors : sum local = 1.4575e-07, global = 1.65378e-20, cumulative = -2.12956e-20
DICPBiCGStab:  Solving for p, Initial residual = 0.0203405, Final residual = 5.12526e-05, No Iterations 13
linear solve p 3645
time step continuity errors : sum local = 7.61418e-08, global = -1.64071e-20, cumulative = -3.77027e-20
ExecutionTime = 0.22 s  ClockTime = 0 s

Time = 0.006

Courant Number mean: 0.0225086 max: 0.142365
DILUPBiCGStab:  Solving for Ux, Initial residual = 0.0295514, Final residual = 1.18921e-12, No Iterations 5
DILUPBiCGStab:  Solving for Uy, Initial residual = 0.0406327, Final residual = 8.46979e-13, No Iterations 5
DILUPBiCGStab:  Solving for Uz, Initial residual = 0.0811944, Final residual = 2.42542e-12, No Iterations 5
linear solve U 5100
DICPBiCGStab:  Solving for p, Initial residual = 0.0255129, Final residual = 9.17979e-05, No Iterations 13
linear solve p 3677
time step continuity errors : sum local = 1.50928e-07, global = -2.09105e-20, cumulative = -5.86132e-20
DICPBiCGStab:  Solving for p, Initial residual = 0.0142431, Final residual = 9.95629e-05, No Iterations 12
linear solve p 3854
time step continuity errors : sum local = 1.39836e-07, global = 4.38116e-21, cumulative = -5.4232e-20
ExecutionTime = 0.23 s  ClockTime = 0 s

Time = 0.007

Courant Number mean: 0.0241616 max: 0.147196
DILUPBiCGStab:  Solving for Ux, Initial residual = 0.0229704, Final residual = 6.70668e-13, No Iterations 5
DILUPBiCGStab:  Solving for Uy, Initial residual = 0.0317785, Final residual = 6.4963e-13, No Iterations 5
DILUPBiCGStab:  Solving for Uz, Initial residual = 0.0649545, Final residual = 1.77628e-12, No Iterations 5
linear solve U 5084
DICPBiCGStab:  Solving for p, Initial residual = 0.0187718, Final residual = 9.07689e-05, No Iterations 13
linear solve p 3655
time step continuity errors : sum local = 1.58603e-07, global = -3.29785e-20, cumulative = -8.72105e-20
DICPBiCGStab:  Solving for p, Initial residual = 0.0105383, Final residual = 9.57212e-05, No Iterations 12
linear solve p 3377
time step continuity errors : sum local = 1.50459e-07, global = -2.454e-20, cumulative = -1.1175e-19
ExecutionTime = 0.25 s  ClockTime = 0 s

Time = 0.008

Courant Number mean: 0.0255327 max: 0.150665
DILUPBiCGStab:  Solving for Ux, Initial residual = 0.018476, Final residual = 3.5449e-13, No Iterations 5
DILUPBiCGStab:  Solving for Uy, Initial residual = 0.0258131, Final residual = 5.05674e-13, No Iterations 5
DILUPBiCGStab:  Solving for Uz, Initial residual = 0.0535547, Final residual = 1.39255e-12, No Iterations 5
linear solve U 5104
DICPBiCGStab:  Solving for p, Initial residual = 0.0148304, Final residual = 9.26006e-05, No Iterations 13
linear solve p 3671
time step continuity errors : sum local = 1.68145e-07, global = -3.3172e-20, cumulative = -1.44922e-19
DICPBiCGStab:  Solving for p, Initial residual = 0.00841142, Final residual = 9.33091e-05, No Iterations 12
linear solve p 3375
time step continuity errors : sum local = 1.5868e-07, global = 8.50921e-21, cumulative = -1.36413e-19
ExecutionTime = 0.26 s  ClockTime = 0 s

Time = 0.009

Courant Number mean: 0.0266828 max: 0.153283
DILUPBiCGStab:  Solving for Ux, Initial residual = 0.0152431, Final residual = 2.02073e-13, No Iterations 5
DILUPBiCGStab:  Solving for Uy, Initial residual = 0.021558, Final residual = 3.95421e-13, No Iterations 5
DILUPBiCGStab:  Solving for Uz, Initial residual = 0.0451423, Final residual = 1.10063e-12, No Iterations 5
linear solve U 5112
DICPBiCGStab:  Solving for p, Initial residual = 0.0120033, Final residual = 9.46669e-05, No Iterations 13
linear solve p 3673
time step continuity errors : sum local = 1.75821e-07, global = 5.40265e-20, cumulative = -8.23868e-20
DICPBiCGStab:  Solving for p, Initial residual = 0.00690545, Final residual = 9.27737e-05, No Iterations 12
linear solve p 3399
time step continuity errors : sum local = 1.6584e-07, global = 7.39913e-21, cumulative = -7.49876e-20
ExecutionTime = 0.28 s  ClockTime = 0 s

Time = 0.01

Courant Number mean: 0.0276675 max: 0.155336
DILUPBiCGStab:  Solving for Ux, Initial residual = 0.0129015, Final residual = 1.30972e-13, No Iterations 5
DILUPBiCGStab:  Solving for Uy, Initial residual = 0.0183684, Final residual = 3.10197e-13, No Iterations 5
DILUPBiCGStab:  Solving for Uz, Initial residual = 0.0387235, Final residual = 8.88845e-13, No Iterations 5
linear solve U 5107
DICPBiCGStab:  Solving for p, Initial residual = 0.00996913, Final residual = 9.69741e-05, No Iterations 13
linear solve p 3675
time step continuity errors : sum local = 1.82383e-07, global = 6.83044e-21, cumulative = -6.81572e-20
DICPBiCGStab:  Solving for p, Initial residual = 0.00581179, Final residual = 9.30071e-05, No Iterations 12
linear solve p 3390
time step continuity errors : sum local = 1.71737e-07, global = -9.35583e-21, cumulative = -7.7513e-20
ExecutionTime = 0.29 s  ClockTime = 0 s

End

