/*---------------------------------------------------------------------------*\
  =========                 |
  \\      /  F ield         | OpenFOAM: The Open Source CFD Toolbox
   \\    /   O peration     | Website:  https://openfoam.org
    \\  /    A nd           | Version:  8
     \\/     M anipulation  |
\*---------------------------------------------------------------------------*/
Build  : 8-ef60d22ea792
Exec   : icoFoam
Date   : Jul 29 2021
Time   : 03:00:57
Host   : "uc2n489.localdomain"
PID    : 3417328
I/O    : uncollated
Case   : /pfs/data5/home/kit/scc/nq7776/code/OBR/lidDrivenCavity3D/Variation_mesh/95/Variation_matrix_solver/BiCGStab_NoPrecond_CUDA/base
nProcs : 1
sigFpe : Enabling floating point exception trapping (FOAM_SIGFPE).
fileModificationChecking : Monitoring run-time modified files using timeStampMaster (fileModificationSkew 10)
allowSystemOperations : Allowing user-supplied system call operations

// * * * * * * * * * * * * * * * * * * * * * * * * * * * * * * * * * * * * * //
Create time

Create mesh for time = 0

Reading transportProperties

Reading field p

Reading field U

Reading/calculating face flux field phi


Starting time loop

Time = 0.001

Courant Number mean: 0 max: 0
DILUPBiCGStab:  Solving for Ux, Initial residual = 1, Final residual = 0.00597808, No Iterations 5
DILUPBiCGStab:  Solving for Uy:  solution singularity
DILUPBiCGStab:  Solving for Uz:  solution singularity
linear solve U 432827
[OGL LOG] init_host_sparsity_pattern : 250 ms
[OGL LOG] matrix not stored update host matrix
[OGL LOG] update_host_mtx : 128 ms
[OGL LOG] matrix is not yet sorted, compute sorting idxs
[OGL LOG] compute_sort : 7694 ms
[OGL LOG] matrix is not yet sorted, sorting host matrix
[OGL LOG] sort_host_mtx_sparsity_pattern : 174 ms
[OGL LOG] sort_host_mtx : 105 ms
[OGL LOG] init_preconditioner : 0 ms
[OGL LOG] solve : 1317 ms
nonecudaGKOBiCGStab:  Solving for p, Initial residual = 1, Final residual = 1.52446e-05, No Iterations 613
linear solve p 10489771
time step continuity errors : sum local = 0.00139147, global = -3.77786e-18, cumulative = -3.77786e-18
[OGL LOG] init_host_sparsity_pattern : 246 ms
[OGL LOG] matrix not stored update host matrix
[OGL LOG] update_host_mtx : 128 ms
[OGL LOG] matrix is not yet sorted, sorting host matrix
[OGL LOG] sort_host_mtx_sparsity_pattern : 182 ms
[OGL LOG] sort_host_mtx : 96 ms
[OGL LOG] init_preconditioner : 0 ms
[OGL LOG] solve : 505 ms
nonecudaGKOBiCGStab:  Solving for p, Initial residual = 0.93585, Final residual = 7.59146e-05, No Iterations 236
linear solve p 1214173
time step continuity errors : sum local = 3.13798e-06, global = 3.87886e-22, cumulative = -3.77747e-18
ExecutionTime = 15.81 s  ClockTime = 16 s

Time = 0.002

Courant Number mean: 0.0534592 max: 0.760872
DILUPBiCGStab:  Solving for Ux, Initial residual = 0.141151, Final residual = 0.00257104, No Iterations 5
DILUPBiCGStab:  Solving for Uy, Initial residual = 0.421693, Final residual = 0.00708627, No Iterations 5
DILUPBiCGStab:  Solving for Uz, Initial residual = 0.88799, Final residual = 0.0261561, No Iterations 5
linear solve U 865657
[OGL LOG] init_host_sparsity_pattern : 238 ms
[OGL LOG] matrix not stored update host matrix
[OGL LOG] update_host_mtx : 129 ms
[OGL LOG] matrix is not yet sorted, sorting host matrix
[OGL LOG] sort_host_mtx_sparsity_pattern : 184 ms
[OGL LOG] sort_host_mtx : 96 ms
[OGL LOG] init_preconditioner : 0 ms
[OGL LOG] solve : 1143 ms
nonecudaGKOBiCGStab:  Solving for p, Initial residual = 0.977408, Final residual = 8.27028e-05, No Iterations 540
linear solve p 1849387
time step continuity errors : sum local = 1.39882e-06, global = 4.36945e-21, cumulative = -3.77311e-18
[OGL LOG] init_host_sparsity_pattern : 236 ms
[OGL LOG] matrix not stored update host matrix
[OGL LOG] update_host_mtx : 127 ms
[OGL LOG] matrix is not yet sorted, sorting host matrix
[OGL LOG] sort_host_mtx_sparsity_pattern : 176 ms
[OGL LOG] sort_host_mtx : 95 ms
[OGL LOG] init_preconditioner : 0 ms
[OGL LOG] solve : 1099 ms
nonecudaGKOBiCGStab:  Solving for p, Initial residual = 0.886611, Final residual = 9.89214e-05, No Iterations 516
linear solve p 1793286
time step continuity errors : sum local = 0.000678417, global = -8.49034e-19, cumulative = -4.62214e-18
ExecutionTime = 20.85 s  ClockTime = 21 s

Time = 0.003

Courant Number mean: 0.0864941 max: 1.00573
DILUPBiCGStab:  Solving for Ux, Initial residual = 0.0734868, Final residual = 0.000939423, No Iterations 5
DILUPBiCGStab:  Solving for Uy, Initial residual = 0.281165, Final residual = 0.00410024, No Iterations 5
DILUPBiCGStab:  Solving for Uz, Initial residual = 0.808369, Final residual = 0.0162254, No Iterations 5
linear solve U 856370
[OGL LOG] init_host_sparsity_pattern : 237 ms
[OGL LOG] matrix not stored update host matrix
[OGL LOG] update_host_mtx : 127 ms
[OGL LOG] matrix is not yet sorted, sorting host matrix
[OGL LOG] sort_host_mtx_sparsity_pattern : 182 ms
[OGL LOG] sort_host_mtx : 95 ms
[OGL LOG] init_preconditioner : 0 ms
[OGL LOG] solve : 1218 ms
nonecudaGKOBiCGStab:  Solving for p, Initial residual = 0.973875, Final residual = 9.33136e-05, No Iterations 574
linear solve p 1915394
time step continuity errors : sum local = 2.14612e-06, global = -1.89501e-20, cumulative = -4.64109e-18
[OGL LOG] init_host_sparsity_pattern : 237 ms
[OGL LOG] matrix not stored update host matrix
[OGL LOG] update_host_mtx : 127 ms
[OGL LOG] matrix is not yet sorted, sorting host matrix
[OGL LOG] sort_host_mtx_sparsity_pattern : 176 ms
[OGL LOG] sort_host_mtx : 95 ms
[OGL LOG] init_preconditioner : 0 ms
[OGL LOG] solve : 1114 ms
nonecudaGKOBiCGStab:  Solving for p, Initial residual = 0.870151, Final residual = 9.84565e-05, No Iterations 524
linear solve p 1806634
time step continuity errors : sum local = 0.000938384, global = 1.77402e-18, cumulative = -2.86707e-18
ExecutionTime = 25.96 s  ClockTime = 26 s

Time = 0.004

Courant Number mean: 0.0977433 max: 1.01195
DILUPBiCGStab:  Solving for Ux, Initial residual = 0.0607393, Final residual = 0.00103161, No Iterations 5
DILUPBiCGStab:  Solving for Uy, Initial residual = 0.235553, Final residual = 0.00388327, No Iterations 5
DILUPBiCGStab:  Solving for Uz, Initial residual = 0.82114, Final residual = 0.0156307, No Iterations 5
linear solve U 865021
[OGL LOG] init_host_sparsity_pattern : 243 ms
[OGL LOG] matrix not stored update host matrix
[OGL LOG] update_host_mtx : 129 ms
[OGL LOG] matrix is not yet sorted, sorting host matrix
[OGL LOG] sort_host_mtx_sparsity_pattern : 180 ms
[OGL LOG] sort_host_mtx : 95 ms
[OGL LOG] init_preconditioner : 0 ms
[OGL LOG] solve : 1095 ms
nonecudaGKOBiCGStab:  Solving for p, Initial residual = 0.970467, Final residual = 9.01826e-05, No Iterations 515
linear solve p 1798533
time step continuity errors : sum local = 0.00741537, global = -7.79025e-18, cumulative = -1.06573e-17
[OGL LOG] init_host_sparsity_pattern : 236 ms
[OGL LOG] matrix not stored update host matrix
[OGL LOG] update_host_mtx : 127 ms
[OGL LOG] matrix is not yet sorted, sorting host matrix
[OGL LOG] sort_host_mtx_sparsity_pattern : 176 ms
[OGL LOG] sort_host_mtx : 95 ms
[OGL LOG] init_preconditioner : 0 ms
[OGL LOG] solve : 1185 ms
nonecudaGKOBiCGStab:  Solving for p, Initial residual = 0.978487, Final residual = 5.20449e-05, No Iterations 559
linear solve p 1876022
time step continuity errors : sum local = 0.0105503, global = -1.06254e-17, cumulative = -2.12827e-17
ExecutionTime = 31.02 s  ClockTime = 31 s

Time = 0.005

Courant Number mean: 0.11688 max: 1.24555
DILUPBiCGStab:  Solving for Ux, Initial residual = 0.0620502, Final residual = 0.000875098, No Iterations 5
DILUPBiCGStab:  Solving for Uy, Initial residual = 0.242817, Final residual = 0.00457775, No Iterations 5
DILUPBiCGStab:  Solving for Uz, Initial residual = 0.456239, Final residual = 0.0104098, No Iterations 5
linear solve U 862694
[OGL LOG] init_host_sparsity_pattern : 232 ms
[OGL LOG] matrix not stored update host matrix
[OGL LOG] update_host_mtx : 127 ms
[OGL LOG] matrix is not yet sorted, sorting host matrix
[OGL LOG] sort_host_mtx_sparsity_pattern : 176 ms
[OGL LOG] sort_host_mtx : 95 ms
[OGL LOG] init_preconditioner : 0 ms
[OGL LOG] solve : 1082 ms
nonecudaGKOBiCGStab:  Solving for p, Initial residual = 0.935368, Final residual = 8.55945e-05, No Iterations 508
linear solve p 1769812
time step continuity errors : sum local = 0.0192615, global = -5.10983e-17, cumulative = -7.2381e-17
[OGL LOG] init_host_sparsity_pattern : 237 ms
[OGL LOG] matrix not stored update host matrix
[OGL LOG] update_host_mtx : 127 ms
[OGL LOG] matrix is not yet sorted, sorting host matrix
[OGL LOG] sort_host_mtx_sparsity_pattern : 182 ms
[OGL LOG] sort_host_mtx : 96 ms
[OGL LOG] init_preconditioner : 0 ms
[OGL LOG] solve : 1307 ms
nonecudaGKOBiCGStab:  Solving for p, Initial residual = 0.754692, Final residual = 6.70048e-05, No Iterations 616
linear solve p 2004611
time step continuity errors : sum local = 0.196943, global = 8.52006e-17, cumulative = 1.28196e-17
ExecutionTime = 36.19 s  ClockTime = 36 s

Time = 0.006

Courant Number mean: 0.229794 max: 13.9839
DILUPBiCGStab:  Solving for Ux, Initial residual = 0.156544, Final residual = 0.00346877, No Iterations 5
DILUPBiCGStab:  Solving for Uy, Initial residual = 0.494543, Final residual = 0.0263258, No Iterations 5
DILUPBiCGStab:  Solving for Uz, Initial residual = 0.714371, Final residual = 0.024019, No Iterations 5
linear solve U 864727
[OGL LOG] init_host_sparsity_pattern : 232 ms
[OGL LOG] matrix not stored update host matrix
[OGL LOG] update_host_mtx : 127 ms
[OGL LOG] matrix is not yet sorted, sorting host matrix
[OGL LOG] sort_host_mtx_sparsity_pattern : 179 ms
[OGL LOG] sort_host_mtx : 95 ms
[OGL LOG] init_preconditioner : 0 ms
[OGL LOG] solve : 1186 ms
nonecudaGKOBiCGStab:  Solving for p, Initial residual = 0.904187, Final residual = 9.33009e-05, No Iterations 559
linear solve p 1875516
time step continuity errors : sum local = 1.52819, global = 2.66653e-17, cumulative = 3.94848e-17
[OGL LOG] init_host_sparsity_pattern : 242 ms
[OGL LOG] matrix not stored update host matrix
[OGL LOG] update_host_mtx : 127 ms
[OGL LOG] matrix is not yet sorted, sorting host matrix
[OGL LOG] sort_host_mtx_sparsity_pattern : 177 ms
[OGL LOG] sort_host_mtx : 95 ms
[OGL LOG] init_preconditioner : 0 ms
[OGL LOG] solve : 373 ms
nonecudaGKOBiCGStab:  Solving for p, Initial residual = 0.753797, Final residual = 9.80605e-05, No Iterations 173
linear solve p 1071820
time step continuity errors : sum local = 0.000740617, global = 3.93701e-18, cumulative = 4.34219e-17
ExecutionTime = 40.53 s  ClockTime = 41 s

Time = 0.007

Courant Number mean: 1.42143 max: 37.1288
DILUPBiCGStab:  Solving for Ux, Initial residual = 0.678976, Final residual = 0.0161161, No Iterations 5
DILUPBiCGStab:  Solving for Uy, Initial residual = 0.759599, Final residual = 0.027471, No Iterations 5
DILUPBiCGStab:  Solving for Uz, Initial residual = 0.810121, Final residual = 0.0282548, No Iterations 5
linear solve U 863131
[OGL LOG] init_host_sparsity_pattern : 233 ms
[OGL LOG] matrix not stored update host matrix
[OGL LOG] update_host_mtx : 127 ms
[OGL LOG] matrix is not yet sorted, sorting host matrix
[OGL LOG] sort_host_mtx_sparsity_pattern : 177 ms
[OGL LOG] sort_host_mtx : 95 ms
[OGL LOG] init_preconditioner : 0 ms
[OGL LOG] solve : 1133 ms
nonecudaGKOBiCGStab:  Solving for p, Initial residual = 0.989802, Final residual = 9.66241e-05, No Iterations 535
linear solve p 1821246
time step continuity errors : sum local = 8.0086, global = 1.56517e-14, cumulative = 1.56952e-14
[OGL LOG] init_host_sparsity_pattern : 237 ms
[OGL LOG] matrix not stored update host matrix
[OGL LOG] update_host_mtx : 127 ms
[OGL LOG] matrix is not yet sorted, sorting host matrix
[OGL LOG] sort_host_mtx_sparsity_pattern : 179 ms
[OGL LOG] sort_host_mtx : 95 ms
[OGL LOG] init_preconditioner : 0 ms
[OGL LOG] solve : 407 ms
nonecudaGKOBiCGStab:  Solving for p, Initial residual = 0.804708, Final residual = 9.97682e-05, No Iterations 189
linear solve p 1105809
time step continuity errors : sum local = 0.00254122, global = 4.52149e-17, cumulative = 1.57404e-14
ExecutionTime = 44.82 s  ClockTime = 45 s

Time = 0.008

Courant Number mean: 9.51882 max: 272.524
DILUPBiCGStab:  Solving for Ux, Initial residual = 0.823308, Final residual = 0.522047, No Iterations 5
DILUPBiCGStab:  Solving for Uy, Initial residual = 0.815384, Final residual = 0.386494, No Iterations 5
DILUPBiCGStab:  Solving for Uz, Initial residual = 0.790378, Final residual = 0.191087, No Iterations 5
linear solve U 862980
[OGL LOG] init_host_sparsity_pattern : 232 ms
[OGL LOG] matrix not stored update host matrix
[OGL LOG] update_host_mtx : 127 ms
[OGL LOG] matrix is not yet sorted, sorting host matrix
[OGL LOG] sort_host_mtx_sparsity_pattern : 177 ms
[OGL LOG] sort_host_mtx : 95 ms
[OGL LOG] init_preconditioner : 0 ms
[OGL LOG] solve : 1216 ms
nonecudaGKOBiCGStab:  Solving for p, Initial residual = 0.936022, Final residual = 8.16331e-05, No Iterations 566
linear solve p 1903805
time step continuity errors : sum local = 215.572, global = 4.50435e-15, cumulative = 2.02447e-14
[OGL LOG] init_host_sparsity_pattern : 236 ms
[OGL LOG] matrix not stored update host matrix
[OGL LOG] update_host_mtx : 127 ms
[OGL LOG] matrix is not yet sorted, sorting host matrix
[OGL LOG] sort_host_mtx_sparsity_pattern : 182 ms
[OGL LOG] sort_host_mtx : 95 ms
[OGL LOG] init_preconditioner : 0 ms
[OGL LOG] solve : 375 ms
nonecudaGKOBiCGStab:  Solving for p, Initial residual = 0.935785, Final residual = 9.35389e-05, No Iterations 172
linear solve p 1071228
time step continuity errors : sum local = 0.21081, global = -8.54244e-17, cumulative = 2.01593e-14
ExecutionTime = 49.19 s  ClockTime = 49 s

Time = 0.009

Courant Number mean: 103.35 max: 4500.31
DILUPBiCGStab:  Solving for Ux, Initial residual = 0.902117, Final residual = 229.452, No Iterations 5
DILUPBiCGStab:  Solving for Uy, Initial residual = 0.913961, Final residual = 294.168, No Iterations 5
DILUPBiCGStab:  Solving for Uz, Initial residual = 0.831878, Final residual = 15.1694, No Iterations 5
linear solve U 867559
[OGL LOG] init_host_sparsity_pattern : 232 ms
[OGL LOG] matrix not stored update host matrix
[OGL LOG] update_host_mtx : 127 ms
[OGL LOG] matrix is not yet sorted, sorting host matrix
[OGL LOG] sort_host_mtx_sparsity_pattern : 176 ms
[OGL LOG] sort_host_mtx : 95 ms
[OGL LOG] init_preconditioner : 0 ms
[OGL LOG] solve : 579 ms
nonecudaGKOBiCGStab:  Solving for p, Initial residual = 0.995328, Final residual = 9.14665e-05, No Iterations 268
linear solve p 1266221
time step continuity errors : sum local = 1.76892, global = -5.53033e-14, cumulative = -3.5144e-14
[OGL LOG] init_host_sparsity_pattern : 237 ms
[OGL LOG] matrix not stored update host matrix
[OGL LOG] update_host_mtx : 127 ms
[OGL LOG] matrix is not yet sorted, sorting host matrix
[OGL LOG] sort_host_mtx_sparsity_pattern : 179 ms
[OGL LOG] sort_host_mtx : 95 ms
[OGL LOG] init_preconditioner : 0 ms
[OGL LOG] solve : 1015 ms
nonecudaGKOBiCGStab:  Solving for p, Initial residual = 0.797899, Final residual = 9.98755e-05, No Iterations 473
linear solve p 1715243
time step continuity errors : sum local = 1161.66, global = 1.78279e-12, cumulative = 1.74765e-12
ExecutionTime = 53.53 s  ClockTime = 54 s

Time = 0.01

Courant Number mean: 214762 max: 2.13011e+08
DILUPBiCGStab:  Solving for Ux, Initial residual = 0.999999, Final residual = 216.632, No Iterations 5
DILUPBiCGStab:  Solving for Uy, Initial residual = 0.999999, Final residual = 733.289, No Iterations 5
DILUPBiCGStab:  Solving for Uz, Initial residual = 0.999996, Final residual = 1614.59, No Iterations 5
linear solve U 863432
[OGL LOG] init_host_sparsity_pattern : 237 ms
[OGL LOG] matrix not stored update host matrix
[OGL LOG] update_host_mtx : 129 ms
[OGL LOG] matrix is not yet sorted, sorting host matrix
[OGL LOG] sort_host_mtx_sparsity_pattern : 184 ms
[OGL LOG] sort_host_mtx : 95 ms
[OGL LOG] init_preconditioner : 0 ms
[OGL LOG] solve : 2551 ms
nonecudaGKOBiCGStab:  Solving for p, Initial residual = 1, Final residual = 8.781e-05, No Iterations 1194
linear solve p 3256463
time step continuity errors : sum local = 1.27939e+11, global = -0.00043001, cumulative = -0.00043001
[OGL LOG] init_host_sparsity_pattern : 237 ms
[OGL LOG] matrix not stored update host matrix
[OGL LOG] update_host_mtx : 127 ms
[OGL LOG] matrix is not yet sorted, sorting host matrix
[OGL LOG] sort_host_mtx_sparsity_pattern : 177 ms
[OGL LOG] sort_host_mtx : 95 ms
[OGL LOG] init_preconditioner : 0 ms
[OGL LOG] solve : 2482 ms
nonecudaGKOBiCGStab:  Solving for p, Initial residual = 0.999948, Final residual = 9.13867e-05, No Iterations 1163
linear solve p 3176877
time step continuity errors : sum local = 3.40627e+14, global = 2.0788, cumulative = 2.07837
ExecutionTime = 61.35 s  ClockTime = 62 s

End

