/*---------------------------------------------------------------------------*\
  =========                 |
  \\      /  F ield         | OpenFOAM: The Open Source CFD Toolbox
   \\    /   O peration     | Website:  https://openfoam.org
    \\  /    A nd           | Version:  8
     \\/     M anipulation  |
\*---------------------------------------------------------------------------*/
Build  : 8-14d69e1ee166
Exec   : icoFoam
Date   : Jul 29 2021
Time   : 07:13:33
Host   : "guyot.icl.utk.edu"
PID    : 240582
I/O    : uncollated
Case   : /home/greole/code/OBR/lidDrivenCavity3D/Variation_mesh/85/Variation_matrix_solver/IR_NoPrecond_CUDA/base
nProcs : 1
sigFpe : Enabling floating point exception trapping (FOAM_SIGFPE).
fileModificationChecking : Monitoring run-time modified files using timeStampMaster (fileModificationSkew 10)
allowSystemOperations : Allowing user-supplied system call operations

// * * * * * * * * * * * * * * * * * * * * * * * * * * * * * * * * * * * * * //
Create time

Create mesh for time = 0

Reading transportProperties

Reading field p

Reading field U

Reading/calculating face flux field phi


Starting time loop

Time = 0.001

Courant Number mean: 0 max: 0
DILUPBiCGStab:  Solving for Ux, Initial residual = 1, Final residual = 0.00382019, No Iterations 5
DILUPBiCGStab:  Solving for Uy:  solution singularity
DILUPBiCGStab:  Solving for Uz:  solution singularity
linear solve U 235180
[OGL LOG] init_host_sparsity_pattern : 270 ms
[OGL LOG] matrix not stored update host matrix
[OGL LOG] update_host_mtx : 136 ms
[OGL LOG] matrix is not yet sorted, compute sorting idxs
[OGL LOG] compute_sort : 6214 ms
[OGL LOG] matrix is not yet sorted, sorting host matrix
[OGL LOG] sort_host_mtx_sparsity_pattern : 122 ms
[OGL LOG] sort_host_mtx : 73 ms
[OGL LOG] init_preconditioner : 0 ms
[OGL LOG] solve : 254 ms
nonecudaGKOIR:  Solving for p, Initial residual = 1, Final residual = 1.26579e-05, No Iterations 3
linear solve p 8793654
time step continuity errors : sum local = 7.42773e-09, global = -1.12259e-20, cumulative = -1.12259e-20
[OGL LOG] init_host_sparsity_pattern : 265 ms
[OGL LOG] matrix not stored update host matrix
[OGL LOG] update_host_mtx : 131 ms
[OGL LOG] matrix is not yet sorted, sorting host matrix
[OGL LOG] sort_host_mtx_sparsity_pattern : 109 ms
[OGL LOG] sort_host_mtx : 66 ms
[OGL LOG] init_preconditioner : 0 ms
[OGL LOG] solve : 220 ms
nonecudaGKOIR:  Solving for p, Initial residual = 0.755101, Final residual = 7.07323e-06, No Iterations 3
linear solve p 832147
time step continuity errors : sum local = 5.35034e-09, global = 9.18156e-21, cumulative = -2.04434e-21
ExecutionTime = 12.68 s  ClockTime = 13 s

Time = 0.002

Courant Number mean: 0.0479746 max: 0.661591
DILUPBiCGStab:  Solving for Ux, Initial residual = 0.144106, Final residual = 0.00147912, No Iterations 5
DILUPBiCGStab:  Solving for Uy, Initial residual = 0.396916, Final residual = 0.00365137, No Iterations 5
DILUPBiCGStab:  Solving for Uz, Initial residual = 0.988292, Final residual = 0.0100669, No Iterations 5
linear solve U 491906
[OGL LOG] init_host_sparsity_pattern : 265 ms
[OGL LOG] matrix not stored update host matrix
[OGL LOG] update_host_mtx : 132 ms
[OGL LOG] matrix is not yet sorted, sorting host matrix
[OGL LOG] sort_host_mtx_sparsity_pattern : 111 ms
[OGL LOG] sort_host_mtx : 65 ms
[OGL LOG] init_preconditioner : 0 ms
[OGL LOG] solve : 223 ms
nonecudaGKOIR:  Solving for p, Initial residual = 0.745844, Final residual = 4.09475e-06, No Iterations 3
linear solve p 834962
time step continuity errors : sum local = 3.82534e-09, global = 1.34338e-20, cumulative = 1.13894e-20
[OGL LOG] init_host_sparsity_pattern : 267 ms
[OGL LOG] matrix not stored update host matrix
[OGL LOG] update_host_mtx : 132 ms
[OGL LOG] matrix is not yet sorted, sorting host matrix
[OGL LOG] sort_host_mtx_sparsity_pattern : 103 ms
[OGL LOG] sort_host_mtx : 69 ms
[OGL LOG] init_preconditioner : 0 ms
[OGL LOG] solve : 222 ms
nonecudaGKOIR:  Solving for p, Initial residual = 0.680814, Final residual = 3.41774e-06, No Iterations 3
linear solve p 830986
time step continuity errors : sum local = 3.25974e-09, global = 3.26979e-21, cumulative = 1.46592e-20
ExecutionTime = 15.18 s  ClockTime = 16 s

Time = 0.003

Courant Number mean: 0.0723207 max: 0.775881
DILUPBiCGStab:  Solving for Ux, Initial residual = 0.0580468, Final residual = 0.000501147, No Iterations 5
DILUPBiCGStab:  Solving for Uy, Initial residual = 0.162036, Final residual = 0.00140357, No Iterations 5
DILUPBiCGStab:  Solving for Uz, Initial residual = 0.731021, Final residual = 0.00680378, No Iterations 5
linear solve U 509745
[OGL LOG] init_host_sparsity_pattern : 266 ms
[OGL LOG] matrix not stored update host matrix
[OGL LOG] update_host_mtx : 132 ms
[OGL LOG] matrix is not yet sorted, sorting host matrix
[OGL LOG] sort_host_mtx_sparsity_pattern : 105 ms
[OGL LOG] sort_host_mtx : 65 ms
[OGL LOG] init_preconditioner : 0 ms
[OGL LOG] solve : 236 ms
nonecudaGKOIR:  Solving for p, Initial residual = 0.746209, Final residual = 3.03408e-06, No Iterations 3
linear solve p 843198
time step continuity errors : sum local = 2.29457e-09, global = -1.19659e-20, cumulative = 2.69334e-21
[OGL LOG] init_host_sparsity_pattern : 265 ms
[OGL LOG] matrix not stored update host matrix
[OGL LOG] update_host_mtx : 132 ms
[OGL LOG] matrix is not yet sorted, sorting host matrix
[OGL LOG] sort_host_mtx_sparsity_pattern : 117 ms
[OGL LOG] sort_host_mtx : 66 ms
[OGL LOG] init_preconditioner : 0 ms
[OGL LOG] solve : 233 ms
nonecudaGKOIR:  Solving for p, Initial residual = 0.706411, Final residual = 2.4532e-06, No Iterations 3
linear solve p 852819
time step continuity errors : sum local = 1.80267e-09, global = -1.13406e-20, cumulative = -8.64727e-21
ExecutionTime = 17.73 s  ClockTime = 18 s

Time = 0.004

Courant Number mean: 0.0841984 max: 0.778366
DILUPBiCGStab:  Solving for Ux, Initial residual = 0.0310304, Final residual = 0.000293621, No Iterations 5
DILUPBiCGStab:  Solving for Uy, Initial residual = 0.11386, Final residual = 0.000994671, No Iterations 5
DILUPBiCGStab:  Solving for Uz, Initial residual = 0.456456, Final residual = 0.00355202, No Iterations 5
linear solve U 510980
[OGL LOG] init_host_sparsity_pattern : 265 ms
[OGL LOG] matrix not stored update host matrix
[OGL LOG] update_host_mtx : 132 ms
[OGL LOG] matrix is not yet sorted, sorting host matrix
[OGL LOG] sort_host_mtx_sparsity_pattern : 110 ms
[OGL LOG] sort_host_mtx : 67 ms
[OGL LOG] init_preconditioner : 0 ms
[OGL LOG] solve : 233 ms
nonecudaGKOIR:  Solving for p, Initial residual = 0.592328, Final residual = 2.25549e-06, No Iterations 3
linear solve p 846761
time step continuity errors : sum local = 1.46269e-09, global = -1.15782e-20, cumulative = -2.02254e-20
[OGL LOG] init_host_sparsity_pattern : 266 ms
[OGL LOG] matrix not stored update host matrix
[OGL LOG] update_host_mtx : 132 ms
[OGL LOG] matrix is not yet sorted, sorting host matrix
[OGL LOG] sort_host_mtx_sparsity_pattern : 102 ms
[OGL LOG] sort_host_mtx : 71 ms
[OGL LOG] init_preconditioner : 0 ms
[OGL LOG] solve : 232 ms
nonecudaGKOIR:  Solving for p, Initial residual = 0.528686, Final residual = 1.81377e-06, No Iterations 3
linear solve p 841152
time step continuity errors : sum local = 1.19152e-09, global = -2.39362e-20, cumulative = -4.41617e-20
ExecutionTime = 20.27 s  ClockTime = 21 s

Time = 0.005

Courant Number mean: 0.0944146 max: 0.789466
DILUPBiCGStab:  Solving for Ux, Initial residual = 0.0232306, Final residual = 0.000192047, No Iterations 5
DILUPBiCGStab:  Solving for Uy, Initial residual = 0.0587865, Final residual = 0.00043181, No Iterations 5
DILUPBiCGStab:  Solving for Uz, Initial residual = 0.26539, Final residual = 0.00204309, No Iterations 5
linear solve U 508675
[OGL LOG] init_host_sparsity_pattern : 266 ms
[OGL LOG] matrix not stored update host matrix
[OGL LOG] update_host_mtx : 132 ms
[OGL LOG] matrix is not yet sorted, sorting host matrix
[OGL LOG] sort_host_mtx_sparsity_pattern : 108 ms
[OGL LOG] sort_host_mtx : 65 ms
[OGL LOG] init_preconditioner : 0 ms
[OGL LOG] solve : 213 ms
nonecudaGKOIR:  Solving for p, Initial residual = 0.548127, Final residual = 1.66089e-06, No Iterations 3
linear solve p 822620
time step continuity errors : sum local = 8.45292e-10, global = 7.25094e-21, cumulative = -3.69107e-20
[OGL LOG] init_host_sparsity_pattern : 265 ms
[OGL LOG] matrix not stored update host matrix
[OGL LOG] update_host_mtx : 132 ms
[OGL LOG] matrix is not yet sorted, sorting host matrix
[OGL LOG] sort_host_mtx_sparsity_pattern : 105 ms
[OGL LOG] sort_host_mtx : 69 ms
[OGL LOG] init_preconditioner : 0 ms
[OGL LOG] solve : 215 ms
nonecudaGKOIR:  Solving for p, Initial residual = 0.495179, Final residual = 1.41762e-06, No Iterations 3
linear solve p 824620
time step continuity errors : sum local = 7.13491e-10, global = -1.09381e-20, cumulative = -4.78489e-20
ExecutionTime = 22.77 s  ClockTime = 23 s

Time = 0.006

Courant Number mean: 0.101921 max: 0.795148
DILUPBiCGStab:  Solving for Ux, Initial residual = 0.0150854, Final residual = 0.000114124, No Iterations 5
DILUPBiCGStab:  Solving for Uy, Initial residual = 0.0475346, Final residual = 0.000338873, No Iterations 5
DILUPBiCGStab:  Solving for Uz, Initial residual = 0.191656, Final residual = 0.0015239, No Iterations 5
linear solve U 507849
[OGL LOG] init_host_sparsity_pattern : 266 ms
[OGL LOG] matrix not stored update host matrix
[OGL LOG] update_host_mtx : 132 ms
[OGL LOG] matrix is not yet sorted, sorting host matrix
[OGL LOG] sort_host_mtx_sparsity_pattern : 112 ms
[OGL LOG] sort_host_mtx : 69 ms
[OGL LOG] init_preconditioner : 0 ms
[OGL LOG] solve : 240 ms
nonecudaGKOIR:  Solving for p, Initial residual = 0.404019, Final residual = 1.2028e-06, No Iterations 3
linear solve p 857679
time step continuity errors : sum local = 5.7352e-10, global = -1.04475e-20, cumulative = -5.82964e-20
[OGL LOG] init_host_sparsity_pattern : 266 ms
[OGL LOG] matrix not stored update host matrix
[OGL LOG] update_host_mtx : 132 ms
[OGL LOG] matrix is not yet sorted, sorting host matrix
[OGL LOG] sort_host_mtx_sparsity_pattern : 102 ms
[OGL LOG] sort_host_mtx : 70 ms
[OGL LOG] init_preconditioner : 0 ms
[OGL LOG] solve : 109 ms
nonecudaGKOIR:  Solving for p, Initial residual = 0.352795, Final residual = 9.51558e-05, No Iterations 2
linear solve p 718057
time step continuity errors : sum local = 5.07534e-08, global = 5.06566e-22, cumulative = -5.77898e-20
ExecutionTime = 25.19 s  ClockTime = 26 s

Time = 0.007

Courant Number mean: 0.108307 max: 0.798725
DILUPBiCGStab:  Solving for Ux, Initial residual = 0.0125478, Final residual = 8.34487e-05, No Iterations 5
DILUPBiCGStab:  Solving for Uy, Initial residual = 0.0315209, Final residual = 0.000143871, No Iterations 5
DILUPBiCGStab:  Solving for Uz, Initial residual = 0.109241, Final residual = 0.00107166, No Iterations 5
linear solve U 513099
[OGL LOG] init_host_sparsity_pattern : 266 ms
[OGL LOG] matrix not stored update host matrix
[OGL LOG] update_host_mtx : 132 ms
[OGL LOG] matrix is not yet sorted, sorting host matrix
[OGL LOG] sort_host_mtx_sparsity_pattern : 119 ms
[OGL LOG] sort_host_mtx : 69 ms
[OGL LOG] init_preconditioner : 0 ms
[OGL LOG] solve : 179 ms
nonecudaGKOIR:  Solving for p, Initial residual = 0.348805, Final residual = 9.4232e-05, No Iterations 2
linear solve p 804300
time step continuity errors : sum local = 3.86754e-08, global = 5.41238e-22, cumulative = -5.72486e-20
[OGL LOG] init_host_sparsity_pattern : 266 ms
[OGL LOG] matrix not stored update host matrix
[OGL LOG] update_host_mtx : 132 ms
[OGL LOG] matrix is not yet sorted, sorting host matrix
[OGL LOG] sort_host_mtx_sparsity_pattern : 116 ms
[OGL LOG] sort_host_mtx : 68 ms
[OGL LOG] init_preconditioner : 0 ms
[OGL LOG] solve : 180 ms
nonecudaGKOIR:  Solving for p, Initial residual = 0.303313, Final residual = 8.29408e-05, No Iterations 2
linear solve p 800470
time step continuity errors : sum local = 3.39675e-08, global = 6.60157e-21, cumulative = -5.0647e-20
ExecutionTime = 27.65 s  ClockTime = 28 s

Time = 0.008

Courant Number mean: 0.11358 max: 0.802054
DILUPBiCGStab:  Solving for Ux, Initial residual = 0.00947492, Final residual = 5.53989e-05, No Iterations 5
DILUPBiCGStab:  Solving for Uy, Initial residual = 0.0267033, Final residual = 0.000129006, No Iterations 5
DILUPBiCGStab:  Solving for Uz, Initial residual = 0.0883614, Final residual = 0.000756888, No Iterations 5
linear solve U 507113
[OGL LOG] init_host_sparsity_pattern : 266 ms
[OGL LOG] matrix not stored update host matrix
[OGL LOG] update_host_mtx : 132 ms
[OGL LOG] matrix is not yet sorted, sorting host matrix
[OGL LOG] sort_host_mtx_sparsity_pattern : 108 ms
[OGL LOG] sort_host_mtx : 69 ms
[OGL LOG] init_preconditioner : 0 ms
[OGL LOG] solve : 176 ms
nonecudaGKOIR:  Solving for p, Initial residual = 0.254685, Final residual = 6.49563e-05, No Iterations 2
linear solve p 788851
time step continuity errors : sum local = 2.59242e-08, global = -2.94065e-21, cumulative = -5.35877e-20
[OGL LOG] init_host_sparsity_pattern : 266 ms
[OGL LOG] matrix not stored update host matrix
[OGL LOG] update_host_mtx : 132 ms
[OGL LOG] matrix is not yet sorted, sorting host matrix
[OGL LOG] sort_host_mtx_sparsity_pattern : 109 ms
[OGL LOG] sort_host_mtx : 65 ms
[OGL LOG] init_preconditioner : 0 ms
[OGL LOG] solve : 176 ms
nonecudaGKOIR:  Solving for p, Initial residual = 0.21905, Final residual = 5.23862e-05, No Iterations 2
linear solve p 786795
time step continuity errors : sum local = 2.0866e-08, global = -4.03856e-21, cumulative = -5.76262e-20
ExecutionTime = 30.09 s  ClockTime = 31 s

Time = 0.009

Courant Number mean: 0.118147 max: 0.804091
DILUPBiCGStab:  Solving for Ux, Initial residual = 0.00805403, Final residual = 4.22055e-05, No Iterations 5
DILUPBiCGStab:  Solving for Uy, Initial residual = 0.0203837, Final residual = 6.91687e-05, No Iterations 5
DILUPBiCGStab:  Solving for Uz, Initial residual = 0.0557234, Final residual = 0.000393432, No Iterations 5
linear solve U 509937
[OGL LOG] init_host_sparsity_pattern : 266 ms
[OGL LOG] matrix not stored update host matrix
[OGL LOG] update_host_mtx : 132 ms
[OGL LOG] matrix is not yet sorted, sorting host matrix
[OGL LOG] sort_host_mtx_sparsity_pattern : 111 ms
[OGL LOG] sort_host_mtx : 69 ms
[OGL LOG] init_preconditioner : 0 ms
[OGL LOG] solve : 105 ms
nonecudaGKOIR:  Solving for p, Initial residual = 0.208328, Final residual = 5.02074e-05, No Iterations 2
linear solve p 722652
time step continuity errors : sum local = 2.04294e-08, global = -1.0659e-21, cumulative = -5.86921e-20
[OGL LOG] init_host_sparsity_pattern : 265 ms
[OGL LOG] matrix not stored update host matrix
[OGL LOG] update_host_mtx : 132 ms
[OGL LOG] matrix is not yet sorted, sorting host matrix
[OGL LOG] sort_host_mtx_sparsity_pattern : 109 ms
[OGL LOG] sort_host_mtx : 69 ms
[OGL LOG] init_preconditioner : 0 ms
[OGL LOG] solve : 107 ms
nonecudaGKOIR:  Solving for p, Initial residual = 0.177929, Final residual = 3.95259e-05, No Iterations 2
linear solve p 721658
time step continuity errors : sum local = 1.55276e-08, global = 2.13314e-20, cumulative = -3.73607e-20
ExecutionTime = 32.37 s  ClockTime = 33 s

Time = 0.01

Courant Number mean: 0.122092 max: 0.806136
DILUPBiCGStab:  Solving for Ux, Initial residual = 0.0066301, Final residual = 3.17815e-05, No Iterations 5
DILUPBiCGStab:  Solving for Uy, Initial residual = 0.0177317, Final residual = 5.7631e-05, No Iterations 5
DILUPBiCGStab:  Solving for Uz, Initial residual = 0.048007, Final residual = 0.000342418, No Iterations 5
linear solve U 508650
[OGL LOG] init_host_sparsity_pattern : 265 ms
[OGL LOG] matrix not stored update host matrix
[OGL LOG] update_host_mtx : 132 ms
[OGL LOG] matrix is not yet sorted, sorting host matrix
[OGL LOG] sort_host_mtx_sparsity_pattern : 116 ms
[OGL LOG] sort_host_mtx : 65 ms
[OGL LOG] init_preconditioner : 0 ms
[OGL LOG] solve : 174 ms
nonecudaGKOIR:  Solving for p, Initial residual = 0.156108, Final residual = 3.55471e-05, No Iterations 2
linear solve p 791854
time step continuity errors : sum local = 1.2898e-08, global = 1.50801e-20, cumulative = -2.22805e-20
[OGL LOG] init_host_sparsity_pattern : 265 ms
[OGL LOG] matrix not stored update host matrix
[OGL LOG] update_host_mtx : 132 ms
[OGL LOG] matrix is not yet sorted, sorting host matrix
[OGL LOG] sort_host_mtx_sparsity_pattern : 109 ms
[OGL LOG] sort_host_mtx : 70 ms
[OGL LOG] init_preconditioner : 0 ms
[OGL LOG] solve : 176 ms
nonecudaGKOIR:  Solving for p, Initial residual = 0.132381, Final residual = 2.92728e-05, No Iterations 2
linear solve p 790792
time step continuity errors : sum local = 1.05992e-08, global = -1.64936e-20, cumulative = -3.87741e-20
ExecutionTime = 34.81 s  ClockTime = 35 s

End

