/*---------------------------------------------------------------------------*\
  =========                 |
  \\      /  F ield         | OpenFOAM: The Open Source CFD Toolbox
   \\    /   O peration     | Website:  https://openfoam.org
    \\  /    A nd           | Version:  8
     \\/     M anipulation  |
\*---------------------------------------------------------------------------*/
Build  : 8-14d69e1ee166
Exec   : icoFoam
Date   : Jul 29 2021
Time   : 08:04:09
Host   : "guyot.icl.utk.edu"
PID    : 82485
I/O    : uncollated
Case   : /home/greole/code/OBR/lidDrivenCavity3D/Variation_mesh/40/Variation_matrix_solver/CG_NoPrecond_CUDA/base
nProcs : 1
sigFpe : Enabling floating point exception trapping (FOAM_SIGFPE).
fileModificationChecking : Monitoring run-time modified files using timeStampMaster (fileModificationSkew 10)
allowSystemOperations : Allowing user-supplied system call operations

// * * * * * * * * * * * * * * * * * * * * * * * * * * * * * * * * * * * * * //
Create time

Create mesh for time = 0

Reading transportProperties

Reading field p

Reading field U

Reading/calculating face flux field phi


Starting time loop

Time = 0.001

Courant Number mean: 0 max: 0
DILUPBiCGStab:  Solving for Ux, Initial residual = 1, Final residual = 1.19415e-05, No Iterations 5
DILUPBiCGStab:  Solving for Uy:  solution singularity
DILUPBiCGStab:  Solving for Uz:  solution singularity
linear solve U 23561
[OGL LOG] init_host_sparsity_pattern : 28 ms
[OGL LOG] matrix not stored update host matrix
[OGL LOG] update_host_mtx : 14 ms
[OGL LOG] matrix is not yet sorted, compute sorting idxs
[OGL LOG] compute_sort : 540 ms
[OGL LOG] matrix is not yet sorted, sorting host matrix
[OGL LOG] sort_host_mtx_sparsity_pattern : 11 ms
[OGL LOG] sort_host_mtx : 6 ms
[OGL LOG] init_preconditioner : 0 ms
[OGL LOG] solve : 70 ms
nonecudaGKOCG:  Solving for p, Initial residual = 1, Final residual = 8.67738e-05, No Iterations 310
linear solve p 2335055
time step continuity errors : sum local = 4.90084e-08, global = -2.91734e-21, cumulative = -2.91734e-21
[OGL LOG] init_host_sparsity_pattern : 26 ms
[OGL LOG] matrix not stored update host matrix
[OGL LOG] update_host_mtx : 13 ms
[OGL LOG] matrix is not yet sorted, sorting host matrix
[OGL LOG] sort_host_mtx_sparsity_pattern : 10 ms
[OGL LOG] sort_host_mtx : 6 ms
[OGL LOG] init_preconditioner : 0 ms
[OGL LOG] solve : 69 ms
nonecudaGKOCG:  Solving for p, Initial residual = 0.607442, Final residual = 9.39628e-05, No Iterations 305
linear solve p 130597
time step continuity errors : sum local = 7.84399e-08, global = 5.42848e-21, cumulative = 2.51114e-21
ExecutionTime = 2.78 s  ClockTime = 3 s

Time = 0.002

Courant Number mean: 0.0213818 max: 0.237104
DILUPBiCGStab:  Solving for Ux, Initial residual = 0.179109, Final residual = 2.2903e-06, No Iterations 5
DILUPBiCGStab:  Solving for Uy, Initial residual = 0.290839, Final residual = 3.2316e-06, No Iterations 5
DILUPBiCGStab:  Solving for Uz, Initial residual = 0.958333, Final residual = 1.25289e-05, No Iterations 5
linear solve U 45215
[OGL LOG] init_host_sparsity_pattern : 26 ms
[OGL LOG] matrix not stored update host matrix
[OGL LOG] update_host_mtx : 12 ms
[OGL LOG] matrix is not yet sorted, sorting host matrix
[OGL LOG] sort_host_mtx_sparsity_pattern : 9 ms
[OGL LOG] sort_host_mtx : 6 ms
[OGL LOG] init_preconditioner : 0 ms
[OGL LOG] solve : 68 ms
nonecudaGKOCG:  Solving for p, Initial residual = 0.459163, Final residual = 8.206e-05, No Iterations 303
linear solve p 128380
time step continuity errors : sum local = 6.53161e-08, global = 1.33109e-20, cumulative = 1.58221e-20
[OGL LOG] init_host_sparsity_pattern : 26 ms
[OGL LOG] matrix not stored update host matrix
[OGL LOG] update_host_mtx : 12 ms
[OGL LOG] matrix is not yet sorted, sorting host matrix
[OGL LOG] sort_host_mtx_sparsity_pattern : 9 ms
[OGL LOG] sort_host_mtx : 6 ms
[OGL LOG] init_preconditioner : 0 ms
[OGL LOG] solve : 68 ms
nonecudaGKOCG:  Solving for p, Initial residual = 0.363703, Final residual = 8.50385e-05, No Iterations 301
linear solve p 128242
time step continuity errors : sum local = 7.04853e-08, global = -6.42357e-24, cumulative = 1.58156e-20
ExecutionTime = 3.1 s  ClockTime = 3 s

Time = 0.003

Courant Number mean: 0.0325209 max: 0.306671
DILUPBiCGStab:  Solving for Ux, Initial residual = 0.0649076, Final residual = 7.63598e-07, No Iterations 5
DILUPBiCGStab:  Solving for Uy, Initial residual = 0.105098, Final residual = 6.05248e-07, No Iterations 5
DILUPBiCGStab:  Solving for Uz, Initial residual = 0.144727, Final residual = 1.65154e-06, No Iterations 5
linear solve U 45423
[OGL LOG] init_host_sparsity_pattern : 26 ms
[OGL LOG] matrix not stored update host matrix
[OGL LOG] update_host_mtx : 13 ms
[OGL LOG] matrix is not yet sorted, sorting host matrix
[OGL LOG] sort_host_mtx_sparsity_pattern : 9 ms
[OGL LOG] sort_host_mtx : 6 ms
[OGL LOG] init_preconditioner : 0 ms
[OGL LOG] solve : 64 ms
nonecudaGKOCG:  Solving for p, Initial residual = 0.164445, Final residual = 9.71264e-05, No Iterations 283
linear solve p 124318
time step continuity errors : sum local = 6.24388e-08, global = 5.6517e-21, cumulative = 2.14673e-20
[OGL LOG] init_host_sparsity_pattern : 26 ms
[OGL LOG] matrix not stored update host matrix
[OGL LOG] update_host_mtx : 13 ms
[OGL LOG] matrix is not yet sorted, sorting host matrix
[OGL LOG] sort_host_mtx_sparsity_pattern : 9 ms
[OGL LOG] sort_host_mtx : 6 ms
[OGL LOG] init_preconditioner : 0 ms
[OGL LOG] solve : 63 ms
nonecudaGKOCG:  Solving for p, Initial residual = 0.129702, Final residual = 9.64084e-05, No Iterations 279
linear solve p 123510
time step continuity errors : sum local = 6.17926e-08, global = -4.48979e-21, cumulative = 1.69776e-20
ExecutionTime = 3.41 s  ClockTime = 3 s

Time = 0.004

Courant Number mean: 0.0391011 max: 0.328163
DILUPBiCGStab:  Solving for Ux, Initial residual = 0.0380611, Final residual = 2.89175e-07, No Iterations 5
DILUPBiCGStab:  Solving for Uy, Initial residual = 0.0656697, Final residual = 3.02519e-07, No Iterations 5
DILUPBiCGStab:  Solving for Uz, Initial residual = 0.105514, Final residual = 6.74474e-07, No Iterations 5
linear solve U 45575
[OGL LOG] init_host_sparsity_pattern : 25 ms
[OGL LOG] matrix not stored update host matrix
[OGL LOG] update_host_mtx : 12 ms
[OGL LOG] matrix is not yet sorted, sorting host matrix
[OGL LOG] sort_host_mtx_sparsity_pattern : 9 ms
[OGL LOG] sort_host_mtx : 6 ms
[OGL LOG] init_preconditioner : 0 ms
[OGL LOG] solve : 63 ms
nonecudaGKOCG:  Solving for p, Initial residual = 0.083435, Final residual = 9.01923e-05, No Iterations 277
linear solve p 122007
time step continuity errors : sum local = 5.59901e-08, global = 1.1142e-21, cumulative = 1.80918e-20
[OGL LOG] init_host_sparsity_pattern : 26 ms
[OGL LOG] matrix not stored update host matrix
[OGL LOG] update_host_mtx : 13 ms
[OGL LOG] matrix is not yet sorted, sorting host matrix
[OGL LOG] sort_host_mtx_sparsity_pattern : 9 ms
[OGL LOG] sort_host_mtx : 6 ms
[OGL LOG] init_preconditioner : 0 ms
[OGL LOG] solve : 62 ms
nonecudaGKOCG:  Solving for p, Initial residual = 0.0649749, Final residual = 9.26552e-05, No Iterations 274
linear solve p 122687
time step continuity errors : sum local = 5.82752e-08, global = -1.39914e-21, cumulative = 1.66926e-20
ExecutionTime = 3.74 s  ClockTime = 4 s

Time = 0.005

Courant Number mean: 0.0438791 max: 0.338387
DILUPBiCGStab:  Solving for Ux, Initial residual = 0.0264329, Final residual = 7.82431e-08, No Iterations 5
DILUPBiCGStab:  Solving for Uy, Initial residual = 0.0455729, Final residual = 1.71085e-07, No Iterations 5
DILUPBiCGStab:  Solving for Uz, Initial residual = 0.0749886, Final residual = 2.93048e-07, No Iterations 5
linear solve U 45131
[OGL LOG] init_host_sparsity_pattern : 25 ms
[OGL LOG] matrix not stored update host matrix
[OGL LOG] update_host_mtx : 13 ms
[OGL LOG] matrix is not yet sorted, sorting host matrix
[OGL LOG] sort_host_mtx_sparsity_pattern : 9 ms
[OGL LOG] sort_host_mtx : 6 ms
[OGL LOG] init_preconditioner : 0 ms
[OGL LOG] solve : 61 ms
nonecudaGKOCG:  Solving for p, Initial residual = 0.0440328, Final residual = 9.08415e-05, No Iterations 272
linear solve p 120812
time step continuity errors : sum local = 5.63899e-08, global = 1.90198e-20, cumulative = 3.57124e-20
[OGL LOG] init_host_sparsity_pattern : 26 ms
[OGL LOG] matrix not stored update host matrix
[OGL LOG] update_host_mtx : 13 ms
[OGL LOG] matrix is not yet sorted, sorting host matrix
[OGL LOG] sort_host_mtx_sparsity_pattern : 9 ms
[OGL LOG] sort_host_mtx : 6 ms
[OGL LOG] init_preconditioner : 0 ms
[OGL LOG] solve : 61 ms
nonecudaGKOCG:  Solving for p, Initial residual = 0.0356478, Final residual = 9.0164e-05, No Iterations 270
linear solve p 121325
time step continuity errors : sum local = 5.61957e-08, global = 4.83556e-21, cumulative = 4.0548e-20
ExecutionTime = 4.05 s  ClockTime = 4 s

Time = 0.006

Courant Number mean: 0.0475595 max: 0.344477
DILUPBiCGStab:  Solving for Ux, Initial residual = 0.0200118, Final residual = 3.55023e-08, No Iterations 5
DILUPBiCGStab:  Solving for Uy, Initial residual = 0.0348388, Final residual = 8.01849e-08, No Iterations 5
DILUPBiCGStab:  Solving for Uz, Initial residual = 0.0588933, Final residual = 1.91525e-07, No Iterations 5
linear solve U 45439
[OGL LOG] init_host_sparsity_pattern : 25 ms
[OGL LOG] matrix not stored update host matrix
[OGL LOG] update_host_mtx : 12 ms
[OGL LOG] matrix is not yet sorted, sorting host matrix
[OGL LOG] sort_host_mtx_sparsity_pattern : 9 ms
[OGL LOG] sort_host_mtx : 6 ms
[OGL LOG] init_preconditioner : 0 ms
[OGL LOG] solve : 61 ms
nonecudaGKOCG:  Solving for p, Initial residual = 0.0293406, Final residual = 8.43686e-05, No Iterations 271
linear solve p 120736
time step continuity errors : sum local = 5.25222e-08, global = -1.24405e-20, cumulative = 2.81074e-20
[OGL LOG] init_host_sparsity_pattern : 26 ms
[OGL LOG] matrix not stored update host matrix
[OGL LOG] update_host_mtx : 13 ms
[OGL LOG] matrix is not yet sorted, sorting host matrix
[OGL LOG] sort_host_mtx_sparsity_pattern : 9 ms
[OGL LOG] sort_host_mtx : 6 ms
[OGL LOG] init_preconditioner : 0 ms
[OGL LOG] solve : 31 ms
nonecudaGKOCG:  Solving for p, Initial residual = 0.024054, Final residual = 9.88456e-05, No Iterations 135
linear solve p 91526
time step continuity errors : sum local = 7.57479e-08, global = -4.37346e-22, cumulative = 2.76701e-20
ExecutionTime = 4.33 s  ClockTime = 4 s

Time = 0.007

Courant Number mean: 0.0505736 max: 0.348643
DILUPBiCGStab:  Solving for Ux, Initial residual = 0.0159057, Final residual = 2.12757e-08, No Iterations 5
DILUPBiCGStab:  Solving for Uy, Initial residual = 0.0279053, Final residual = 5.88812e-08, No Iterations 5
DILUPBiCGStab:  Solving for Uz, Initial residual = 0.0490618, Final residual = 1.37438e-07, No Iterations 5
linear solve U 45113
[OGL LOG] init_host_sparsity_pattern : 26 ms
[OGL LOG] matrix not stored update host matrix
[OGL LOG] update_host_mtx : 13 ms
[OGL LOG] matrix is not yet sorted, sorting host matrix
[OGL LOG] sort_host_mtx_sparsity_pattern : 9 ms
[OGL LOG] sort_host_mtx : 6 ms
[OGL LOG] init_preconditioner : 0 ms
[OGL LOG] solve : 61 ms
nonecudaGKOCG:  Solving for p, Initial residual = 0.0230271, Final residual = 9.54648e-05, No Iterations 269
linear solve p 121382
time step continuity errors : sum local = 5.97495e-08, global = 6.04252e-21, cumulative = 3.37126e-20
[OGL LOG] init_host_sparsity_pattern : 26 ms
[OGL LOG] matrix not stored update host matrix
[OGL LOG] update_host_mtx : 13 ms
[OGL LOG] matrix is not yet sorted, sorting host matrix
[OGL LOG] sort_host_mtx_sparsity_pattern : 9 ms
[OGL LOG] sort_host_mtx : 6 ms
[OGL LOG] init_preconditioner : 0 ms
[OGL LOG] solve : 28 ms
nonecudaGKOCG:  Solving for p, Initial residual = 0.0192888, Final residual = 9.77277e-05, No Iterations 121
linear solve p 88315
time step continuity errors : sum local = 6.41799e-08, global = 1.28615e-20, cumulative = 4.65741e-20
ExecutionTime = 4.61 s  ClockTime = 5 s

Time = 0.008

Courant Number mean: 0.053113 max: 0.351704
DILUPBiCGStab:  Solving for Ux, Initial residual = 0.0130778, Final residual = 1.51455e-08, No Iterations 5
DILUPBiCGStab:  Solving for Uy, Initial residual = 0.0230448, Final residual = 3.8138e-08, No Iterations 5
DILUPBiCGStab:  Solving for Uz, Initial residual = 0.0416161, Final residual = 1.08203e-07, No Iterations 5
linear solve U 45101
[OGL LOG] init_host_sparsity_pattern : 26 ms
[OGL LOG] matrix not stored update host matrix
[OGL LOG] update_host_mtx : 12 ms
[OGL LOG] matrix is not yet sorted, sorting host matrix
[OGL LOG] sort_host_mtx_sparsity_pattern : 9 ms
[OGL LOG] sort_host_mtx : 6 ms
[OGL LOG] init_preconditioner : 0 ms
[OGL LOG] solve : 60 ms
nonecudaGKOCG:  Solving for p, Initial residual = 0.0180589, Final residual = 9.64904e-05, No Iterations 266
linear solve p 120010
time step continuity errors : sum local = 6.06334e-08, global = -3.15834e-20, cumulative = 1.49906e-20
[OGL LOG] init_host_sparsity_pattern : 26 ms
[OGL LOG] matrix not stored update host matrix
[OGL LOG] update_host_mtx : 12 ms
[OGL LOG] matrix is not yet sorted, sorting host matrix
[OGL LOG] sort_host_mtx_sparsity_pattern : 9 ms
[OGL LOG] sort_host_mtx : 6 ms
[OGL LOG] init_preconditioner : 0 ms
[OGL LOG] solve : 28 ms
nonecudaGKOCG:  Solving for p, Initial residual = 0.0152578, Final residual = 9.60788e-05, No Iterations 123
linear solve p 88650
time step continuity errors : sum local = 7.48191e-08, global = -1.72041e-20, cumulative = -2.21342e-21
ExecutionTime = 4.88 s  ClockTime = 5 s

Time = 0.009

Courant Number mean: 0.0552703 max: 0.354072
DILUPBiCGStab:  Solving for Ux, Initial residual = 0.0109727, Final residual = 1.15006e-08, No Iterations 5
DILUPBiCGStab:  Solving for Uy, Initial residual = 0.0195151, Final residual = 2.78374e-08, No Iterations 5
DILUPBiCGStab:  Solving for Uz, Initial residual = 0.0360325, Final residual = 8.55015e-08, No Iterations 5
linear solve U 45302
[OGL LOG] init_host_sparsity_pattern : 26 ms
[OGL LOG] matrix not stored update host matrix
[OGL LOG] update_host_mtx : 12 ms
[OGL LOG] matrix is not yet sorted, sorting host matrix
[OGL LOG] sort_host_mtx_sparsity_pattern : 9 ms
[OGL LOG] sort_host_mtx : 6 ms
[OGL LOG] init_preconditioner : 0 ms
[OGL LOG] solve : 60 ms
nonecudaGKOCG:  Solving for p, Initial residual = 0.015314, Final residual = 9.67926e-05, No Iterations 266
linear solve p 119983
time step continuity errors : sum local = 6.10191e-08, global = -1.30144e-20, cumulative = -1.52278e-20
[OGL LOG] init_host_sparsity_pattern : 26 ms
[OGL LOG] matrix not stored update host matrix
[OGL LOG] update_host_mtx : 13 ms
[OGL LOG] matrix is not yet sorted, sorting host matrix
[OGL LOG] sort_host_mtx_sparsity_pattern : 9 ms
[OGL LOG] sort_host_mtx : 6 ms
[OGL LOG] init_preconditioner : 0 ms
[OGL LOG] solve : 27 ms
nonecudaGKOCG:  Solving for p, Initial residual = 0.0129984, Final residual = 9.76421e-05, No Iterations 117
linear solve p 87336
time step continuity errors : sum local = 6.96472e-08, global = 9.92405e-21, cumulative = -5.30374e-21
ExecutionTime = 5.17 s  ClockTime = 5 s

Time = 0.01

Courant Number mean: 0.0571261 max: 0.355961
DILUPBiCGStab:  Solving for Ux, Initial residual = 0.00938736, Final residual = 9.26482e-09, No Iterations 5
DILUPBiCGStab:  Solving for Uy, Initial residual = 0.0167434, Final residual = 2.0469e-08, No Iterations 5
DILUPBiCGStab:  Solving for Uz, Initial residual = 0.0317419, Final residual = 6.74583e-08, No Iterations 5
linear solve U 45284
[OGL LOG] init_host_sparsity_pattern : 26 ms
[OGL LOG] matrix not stored update host matrix
[OGL LOG] update_host_mtx : 13 ms
[OGL LOG] matrix is not yet sorted, sorting host matrix
[OGL LOG] sort_host_mtx_sparsity_pattern : 9 ms
[OGL LOG] sort_host_mtx : 6 ms
[OGL LOG] init_preconditioner : 0 ms
[OGL LOG] solve : 60 ms
nonecudaGKOCG:  Solving for p, Initial residual = 0.012935, Final residual = 9.09386e-05, No Iterations 265
linear solve p 120479
time step continuity errors : sum local = 5.7487e-08, global = -3.13695e-21, cumulative = -8.44069e-21
[OGL LOG] init_host_sparsity_pattern : 26 ms
[OGL LOG] matrix not stored update host matrix
[OGL LOG] update_host_mtx : 13 ms
[OGL LOG] matrix is not yet sorted, sorting host matrix
[OGL LOG] sort_host_mtx_sparsity_pattern : 9 ms
[OGL LOG] sort_host_mtx : 6 ms
[OGL LOG] init_preconditioner : 0 ms
[OGL LOG] solve : 59 ms
nonecudaGKOCG:  Solving for p, Initial residual = 0.0110081, Final residual = 9.54264e-05, No Iterations 263
linear solve p 120101
time step continuity errors : sum local = 6.04124e-08, global = -1.35953e-20, cumulative = -2.20359e-20
ExecutionTime = 5.47 s  ClockTime = 5 s

End

