/*---------------------------------------------------------------------------*\
  =========                 |
  \\      /  F ield         | OpenFOAM: The Open Source CFD Toolbox
   \\    /   O peration     | Website:  https://openfoam.org
    \\  /    A nd           | Version:  8
     \\/     M anipulation  |
\*---------------------------------------------------------------------------*/
Build  : 8-14d69e1ee166
Exec   : icoFoam
Date   : Jul 28 2021
Time   : 18:04:32
Host   : "guyot.icl.utk.edu"
PID    : 223146
I/O    : uncollated
Case   : /home/greole/code/OBR/lidDrivenCavity3D/Variation_mesh/40/Variation_matrix_solver/BiCGStab_DIC_Serial/base
nProcs : 1
sigFpe : Enabling floating point exception trapping (FOAM_SIGFPE).
fileModificationChecking : Monitoring run-time modified files using timeStampMaster (fileModificationSkew 10)
allowSystemOperations : Allowing user-supplied system call operations

// * * * * * * * * * * * * * * * * * * * * * * * * * * * * * * * * * * * * * //
Create time

Create mesh for time = 0

Reading transportProperties

Reading field p

Reading field U

Reading/calculating face flux field phi


Starting time loop

Time = 0.001

Courant Number mean: 0 max: 0
DILUPBiCGStab:  Solving for Ux, Initial residual = 1, Final residual = 1.19415e-05, No Iterations 5
DILUPBiCGStab:  Solving for Uy:  solution singularity
DILUPBiCGStab:  Solving for Uz:  solution singularity
linear solve U 23709
DICPBiCGStab:  Solving for p, Initial residual = 1, Final residual = 9.0819e-05, No Iterations 79
linear solve p 187271
time step continuity errors : sum local = 6.96421e-08, global = -4.32409e-21, cumulative = -4.32409e-21
DICPBiCGStab:  Solving for p, Initial residual = 0.607376, Final residual = 8.84142e-05, No Iterations 73
linear solve p 169552
time step continuity errors : sum local = 1.12244e-07, global = 3.02831e-21, cumulative = -1.29578e-21
ExecutionTime = 0.72 s  ClockTime = 1 s

Time = 0.002

Courant Number mean: 0.021382 max: 0.237105
DILUPBiCGStab:  Solving for Ux, Initial residual = 0.179067, Final residual = 2.29047e-06, No Iterations 5
DILUPBiCGStab:  Solving for Uy, Initial residual = 0.290889, Final residual = 3.23103e-06, No Iterations 5
DILUPBiCGStab:  Solving for Uz, Initial residual = 0.953002, Final residual = 1.22407e-05, No Iterations 5
linear solve U 45635
DICPBiCGStab:  Solving for p, Initial residual = 0.459574, Final residual = 6.26565e-05, No Iterations 75
linear solve p 174001
time step continuity errors : sum local = 9.9741e-08, global = 7.65824e-21, cumulative = 6.36247e-21
DICPBiCGStab:  Solving for p, Initial residual = 0.363887, Final residual = 5.47071e-05, No Iterations 70
linear solve p 161560
time step continuity errors : sum local = 8.57717e-08, global = 1.50703e-20, cumulative = 2.14327e-20
ExecutionTime = 1.12 s  ClockTime = 1 s

Time = 0.003

Courant Number mean: 0.0325216 max: 0.306673
DILUPBiCGStab:  Solving for Ux, Initial residual = 0.0650573, Final residual = 7.6287e-07, No Iterations 5
DILUPBiCGStab:  Solving for Uy, Initial residual = 0.104907, Final residual = 6.05288e-07, No Iterations 5
DILUPBiCGStab:  Solving for Uz, Initial residual = 0.163066, Final residual = 2.03326e-06, No Iterations 5
linear solve U 43822
DICPBiCGStab:  Solving for p, Initial residual = 0.165037, Final residual = 8.69606e-05, No Iterations 69
linear solve p 161137
time step continuity errors : sum local = 8.77981e-08, global = -2.87755e-21, cumulative = 1.85552e-20
DICPBiCGStab:  Solving for p, Initial residual = 0.130213, Final residual = 9.9568e-05, No Iterations 61
linear solve p 144559
time step continuity errors : sum local = 1.22732e-07, global = -3.18861e-20, cumulative = -1.3331e-20
ExecutionTime = 1.49 s  ClockTime = 2 s

Time = 0.004

Courant Number mean: 0.0391016 max: 0.328166
DILUPBiCGStab:  Solving for Ux, Initial residual = 0.0379827, Final residual = 2.89762e-07, No Iterations 5
DILUPBiCGStab:  Solving for Uy, Initial residual = 0.0659926, Final residual = 3.07008e-07, No Iterations 5
DILUPBiCGStab:  Solving for Uz, Initial residual = 0.124346, Final residual = 1.13933e-06, No Iterations 5
linear solve U 45472
DICPBiCGStab:  Solving for p, Initial residual = 0.0847891, Final residual = 6.28029e-05, No Iterations 77
linear solve p 178393
time step continuity errors : sum local = 7.79746e-08, global = -3.2901e-20, cumulative = -4.6232e-20
DICPBiCGStab:  Solving for p, Initial residual = 0.0661842, Final residual = 8.59428e-05, No Iterations 70
linear solve p 164711
time step continuity errors : sum local = 1.08349e-07, global = -1.4685e-20, cumulative = -6.0917e-20
ExecutionTime = 1.9 s  ClockTime = 2 s

Time = 0.005

Courant Number mean: 0.0438801 max: 0.33839
DILUPBiCGStab:  Solving for Ux, Initial residual = 0.0264791, Final residual = 7.82976e-08, No Iterations 5
DILUPBiCGStab:  Solving for Uy, Initial residual = 0.0455525, Final residual = 1.73032e-07, No Iterations 5
DILUPBiCGStab:  Solving for Uz, Initial residual = 0.0803743, Final residual = 3.68292e-07, No Iterations 5
linear solve U 43968
DICPBiCGStab:  Solving for p, Initial residual = 0.0444347, Final residual = 9.12238e-05, No Iterations 61
linear solve p 143770
time step continuity errors : sum local = 9.46512e-08, global = -1.5744e-20, cumulative = -7.66609e-20
DICPBiCGStab:  Solving for p, Initial residual = 0.0359768, Final residual = 9.56304e-05, No Iterations 29
linear solve p 67034
time step continuity errors : sum local = 7.76362e-08, global = -1.07907e-20, cumulative = -8.74516e-20
ExecutionTime = 2.18 s  ClockTime = 2 s

Time = 0.006

Courant Number mean: 0.0475595 max: 0.344478
DILUPBiCGStab:  Solving for Ux, Initial residual = 0.0199743, Final residual = 3.56547e-08, No Iterations 5
DILUPBiCGStab:  Solving for Uy, Initial residual = 0.0350238, Final residual = 8.04551e-08, No Iterations 5
DILUPBiCGStab:  Solving for Uz, Initial residual = 0.0648368, Final residual = 3.45903e-07, No Iterations 5
linear solve U 43739
DICPBiCGStab:  Solving for p, Initial residual = 0.0304331, Final residual = 9.45776e-05, No Iterations 59
linear solve p 140279
time step continuity errors : sum local = 1.17787e-07, global = -6.30212e-21, cumulative = -9.37538e-20
DICPBiCGStab:  Solving for p, Initial residual = 0.0248711, Final residual = 9.0541e-05, No Iterations 28
linear solve p 64793
time step continuity errors : sum local = 9.13812e-08, global = -5.91784e-21, cumulative = -9.96716e-20
ExecutionTime = 2.45 s  ClockTime = 3 s

Time = 0.007

Courant Number mean: 0.0505736 max: 0.348645
DILUPBiCGStab:  Solving for Ux, Initial residual = 0.0159431, Final residual = 2.1314e-08, No Iterations 5
DILUPBiCGStab:  Solving for Uy, Initial residual = 0.0278667, Final residual = 5.83835e-08, No Iterations 5
DILUPBiCGStab:  Solving for Uz, Initial residual = 0.0509412, Final residual = 1.58075e-07, No Iterations 5
linear solve U 43852
DICPBiCGStab:  Solving for p, Initial residual = 0.0231959, Final residual = 9.3242e-05, No Iterations 28
linear solve p 66187
time step continuity errors : sum local = 6.27737e-08, global = 1.07806e-20, cumulative = -8.8891e-20
DICPBiCGStab:  Solving for p, Initial residual = 0.0194222, Final residual = 9.78554e-05, No Iterations 27
linear solve p 63695
time step continuity errors : sum local = 7.76995e-08, global = 1.50544e-21, cumulative = -8.73856e-20
ExecutionTime = 2.65 s  ClockTime = 3 s

Time = 0.008

Courant Number mean: 0.0531129 max: 0.351706
DILUPBiCGStab:  Solving for Ux, Initial residual = 0.0130491, Final residual = 1.51796e-08, No Iterations 5
DILUPBiCGStab:  Solving for Uy, Initial residual = 0.0231242, Final residual = 3.79882e-08, No Iterations 5
DILUPBiCGStab:  Solving for Uz, Initial residual = 0.0418767, Final residual = 1.14104e-07, No Iterations 5
linear solve U 43742
DICPBiCGStab:  Solving for p, Initial residual = 0.0187964, Final residual = 8.85552e-05, No Iterations 27
linear solve p 63750
time step continuity errors : sum local = 8.22674e-08, global = 1.90466e-20, cumulative = -6.8339e-20
DICPBiCGStab:  Solving for p, Initial residual = 0.0158898, Final residual = 9.91279e-05, No Iterations 26
linear solve p 60197
time step continuity errors : sum local = 8.52524e-08, global = 1.74217e-20, cumulative = -5.09173e-20
ExecutionTime = 2.84 s  ClockTime = 3 s

Time = 0.009

Courant Number mean: 0.0552703 max: 0.354072
DILUPBiCGStab:  Solving for Ux, Initial residual = 0.010966, Final residual = 1.14318e-08, No Iterations 5
DILUPBiCGStab:  Solving for Uy, Initial residual = 0.0195185, Final residual = 2.85286e-08, No Iterations 5
DILUPBiCGStab:  Solving for Uz, Initial residual = 0.036413, Final residual = 9.22423e-08, No Iterations 5
linear solve U 43536
DICPBiCGStab:  Solving for p, Initial residual = 0.0155884, Final residual = 8.47842e-05, No Iterations 27
linear solve p 63958
time step continuity errors : sum local = 6.367e-08, global = 6.6517e-21, cumulative = -4.42656e-20
DICPBiCGStab:  Solving for p, Initial residual = 0.0132616, Final residual = 9.94169e-05, No Iterations 26
linear solve p 60164
time step continuity errors : sum local = 8.01451e-08, global = 4.09196e-21, cumulative = -4.01737e-20
ExecutionTime = 3.03 s  ClockTime = 3 s

Time = 0.01

Courant Number mean: 0.0571259 max: 0.355962
DILUPBiCGStab:  Solving for Ux, Initial residual = 0.00935367, Final residual = 9.17713e-09, No Iterations 5
DILUPBiCGStab:  Solving for Uy, Initial residual = 0.0168018, Final residual = 2.09541e-08, No Iterations 5
DILUPBiCGStab:  Solving for Uz, Initial residual = 0.0314085, Final residual = 7.55919e-08, No Iterations 5
linear solve U 43481
DICPBiCGStab:  Solving for p, Initial residual = 0.0133657, Final residual = 9.5636e-05, No Iterations 26
linear solve p 61438
time step continuity errors : sum local = 7.94557e-08, global = -8.4975e-21, cumulative = -4.86712e-20
DICPBiCGStab:  Solving for p, Initial residual = 0.0114101, Final residual = 9.29328e-05, No Iterations 25
linear solve p 57893
time step continuity errors : sum local = 7.76757e-08, global = 2.31041e-20, cumulative = -2.55671e-20
ExecutionTime = 3.22 s  ClockTime = 3 s

End

