/*---------------------------------------------------------------------------*\
  =========                 |
  \\      /  F ield         | OpenFOAM: The Open Source CFD Toolbox
   \\    /   O peration     | Website:  https://openfoam.org
    \\  /    A nd           | Version:  8
     \\/     M anipulation  |
\*---------------------------------------------------------------------------*/
Build  : 8-ef60d22ea792
Exec   : icoFoam
Date   : Jul 29 2021
Time   : 07:48:52
Host   : "nla-gpu2.ianm.kit.edu"
PID    : 1964463
I/O    : uncollated
Case   : /home/greole/code/OBR/lidDrivenCavity3D/Variation_mesh/45/Variation_matrix_solver/CG_NoPrecond_HIP/base
nProcs : 1
sigFpe : Enabling floating point exception trapping (FOAM_SIGFPE).
fileModificationChecking : Monitoring run-time modified files using timeStampMaster (fileModificationSkew 10)
allowSystemOperations : Allowing user-supplied system call operations

// * * * * * * * * * * * * * * * * * * * * * * * * * * * * * * * * * * * * * //
Create time

Create mesh for time = 0

Reading transportProperties

Reading field p

Reading field U

Reading/calculating face flux field phi


Starting time loop

Time = 0.001

Courant Number mean: 0 max: 0
DILUPBiCGStab:  Solving for Ux, Initial residual = 1, Final residual = 4.36896e-05, No Iterations 5
DILUPBiCGStab:  Solving for Uy:  solution singularity
DILUPBiCGStab:  Solving for Uz:  solution singularity
linear solve U 36714
[OGL LOG] init_host_sparsity_pattern : 44 ms
[OGL LOG] matrix not stored update host matrix
[OGL LOG] update_host_mtx : 21 ms
[OGL LOG] matrix is not yet sorted, compute sorting idxs
[OGL LOG] compute_sort : 799 ms
[OGL LOG] matrix is not yet sorted, sorting host matrix
[OGL LOG] sort_host_mtx_sparsity_pattern : 17 ms
[OGL LOG] sort_host_mtx : 10 ms
[OGL LOG] init_preconditioner : 0 ms
[OGL LOG] solve : 99 ms
nonehipGKOCG:  Solving for p, Initial residual = 1, Final residual = 9.30592e-05, No Iterations 349
linear solve p 1428800
time step continuity errors : sum local = 5.33062e-08, global = 2.60608e-21, cumulative = 2.60608e-21
[OGL LOG] init_host_sparsity_pattern : 41 ms
[OGL LOG] matrix not stored update host matrix
[OGL LOG] update_host_mtx : 21 ms
[OGL LOG] matrix is not yet sorted, sorting host matrix
[OGL LOG] sort_host_mtx_sparsity_pattern : 17 ms
[OGL LOG] sort_host_mtx : 10 ms
[OGL LOG] init_preconditioner : 0 ms
[OGL LOG] solve : 71 ms
nonehipGKOCG:  Solving for p, Initial residual = 0.634891, Final residual = 9.73507e-05, No Iterations 344
linear solve p 168440
time step continuity errors : sum local = 8.05103e-08, global = -1.32464e-21, cumulative = 1.28145e-21
ExecutionTime = 2.25 s  ClockTime = 2 s

Time = 0.002

Courant Number mean: 0.024462 max: 0.283008
DILUPBiCGStab:  Solving for Ux, Initial residual = 0.172563, Final residual = 9.21356e-06, No Iterations 5
DILUPBiCGStab:  Solving for Uy, Initial residual = 0.303006, Final residual = 1.34753e-05, No Iterations 5
DILUPBiCGStab:  Solving for Uz, Initial residual = 0.966836, Final residual = 5.38959e-05, No Iterations 5
linear solve U 69130
[OGL LOG] init_host_sparsity_pattern : 39 ms
[OGL LOG] matrix not stored update host matrix
[OGL LOG] update_host_mtx : 22 ms
[OGL LOG] matrix is not yet sorted, sorting host matrix
[OGL LOG] sort_host_mtx_sparsity_pattern : 17 ms
[OGL LOG] sort_host_mtx : 10 ms
[OGL LOG] init_preconditioner : 0 ms
[OGL LOG] solve : 70 ms
nonehipGKOCG:  Solving for p, Initial residual = 0.502478, Final residual = 9.82663e-05, No Iterations 341
linear solve p 168076
time step continuity errors : sum local = 7.85105e-08, global = 7.75448e-21, cumulative = 9.03593e-21
[OGL LOG] init_host_sparsity_pattern : 39 ms
[OGL LOG] matrix not stored update host matrix
[OGL LOG] update_host_mtx : 22 ms
[OGL LOG] matrix is not yet sorted, sorting host matrix
[OGL LOG] sort_host_mtx_sparsity_pattern : 17 ms
[OGL LOG] sort_host_mtx : 10 ms
[OGL LOG] init_preconditioner : 0 ms
[OGL LOG] solve : 70 ms
nonehipGKOCG:  Solving for p, Initial residual = 0.411867, Final residual = 9.6441e-05, No Iterations 339
linear solve p 167120
time step continuity errors : sum local = 7.99124e-08, global = 2.26881e-20, cumulative = 3.1724e-20
ExecutionTime = 2.82 s  ClockTime = 2 s

Time = 0.003

Courant Number mean: 0.0369602 max: 0.358121
DILUPBiCGStab:  Solving for Ux, Initial residual = 0.0596416, Final residual = 3.42624e-06, No Iterations 5
DILUPBiCGStab:  Solving for Uy, Initial residual = 0.101744, Final residual = 2.38969e-06, No Iterations 5
DILUPBiCGStab:  Solving for Uz, Initial residual = 0.132172, Final residual = 6.31785e-06, No Iterations 5
linear solve U 68959
[OGL LOG] init_host_sparsity_pattern : 40 ms
[OGL LOG] matrix not stored update host matrix
[OGL LOG] update_host_mtx : 22 ms
[OGL LOG] matrix is not yet sorted, sorting host matrix
[OGL LOG] sort_host_mtx_sparsity_pattern : 17 ms
[OGL LOG] sort_host_mtx : 10 ms
[OGL LOG] init_preconditioner : 0 ms
[OGL LOG] solve : 66 ms
nonehipGKOCG:  Solving for p, Initial residual = 0.230428, Final residual = 9.56625e-05, No Iterations 322
linear solve p 164111
time step continuity errors : sum local = 5.80523e-08, global = -9.80816e-22, cumulative = 3.07432e-20
[OGL LOG] init_host_sparsity_pattern : 39 ms
[OGL LOG] matrix not stored update host matrix
[OGL LOG] update_host_mtx : 22 ms
[OGL LOG] matrix is not yet sorted, sorting host matrix
[OGL LOG] sort_host_mtx_sparsity_pattern : 17 ms
[OGL LOG] sort_host_mtx : 10 ms
[OGL LOG] init_preconditioner : 0 ms
[OGL LOG] solve : 66 ms
nonehipGKOCG:  Solving for p, Initial residual = 0.18596, Final residual = 9.5327e-05, No Iterations 319
linear solve p 163036
time step continuity errors : sum local = 5.71644e-08, global = 1.31162e-20, cumulative = 4.38594e-20
ExecutionTime = 3.37 s  ClockTime = 3 s

Time = 0.004

Courant Number mean: 0.0442727 max: 0.378745
DILUPBiCGStab:  Solving for Ux, Initial residual = 0.0352234, Final residual = 8.30012e-07, No Iterations 5
DILUPBiCGStab:  Solving for Uy, Initial residual = 0.0646902, Final residual = 1.39501e-06, No Iterations 5
DILUPBiCGStab:  Solving for Uz, Initial residual = 0.110142, Final residual = 4.02211e-06, No Iterations 5
linear solve U 69442
[OGL LOG] init_host_sparsity_pattern : 39 ms
[OGL LOG] matrix not stored update host matrix
[OGL LOG] update_host_mtx : 22 ms
[OGL LOG] matrix is not yet sorted, sorting host matrix
[OGL LOG] sort_host_mtx_sparsity_pattern : 17 ms
[OGL LOG] sort_host_mtx : 10 ms
[OGL LOG] init_preconditioner : 0 ms
[OGL LOG] solve : 65 ms
nonehipGKOCG:  Solving for p, Initial residual = 0.110937, Final residual = 9.66755e-05, No Iterations 314
linear solve p 162803
time step continuity errors : sum local = 5.62782e-08, global = -1.53257e-20, cumulative = 2.85337e-20
[OGL LOG] init_host_sparsity_pattern : 39 ms
[OGL LOG] matrix not stored update host matrix
[OGL LOG] update_host_mtx : 21 ms
[OGL LOG] matrix is not yet sorted, sorting host matrix
[OGL LOG] sort_host_mtx_sparsity_pattern : 17 ms
[OGL LOG] sort_host_mtx : 10 ms
[OGL LOG] init_preconditioner : 0 ms
[OGL LOG] solve : 64 ms
nonehipGKOCG:  Solving for p, Initial residual = 0.0875044, Final residual = 9.96507e-05, No Iterations 310
linear solve p 159674
time step continuity errors : sum local = 5.87335e-08, global = 4.85451e-21, cumulative = 3.33882e-20
ExecutionTime = 3.91 s  ClockTime = 3 s

Time = 0.005

Courant Number mean: 0.0495667 max: 0.388679
DILUPBiCGStab:  Solving for Ux, Initial residual = 0.0246458, Final residual = 2.72507e-07, No Iterations 5
DILUPBiCGStab:  Solving for Uy, Initial residual = 0.0448026, Final residual = 7.79602e-07, No Iterations 5
DILUPBiCGStab:  Solving for Uz, Initial residual = 0.0751237, Final residual = 1.60995e-06, No Iterations 5
linear solve U 69529
[OGL LOG] init_host_sparsity_pattern : 39 ms
[OGL LOG] matrix not stored update host matrix
[OGL LOG] update_host_mtx : 22 ms
[OGL LOG] matrix is not yet sorted, sorting host matrix
[OGL LOG] sort_host_mtx_sparsity_pattern : 17 ms
[OGL LOG] sort_host_mtx : 10 ms
[OGL LOG] init_preconditioner : 0 ms
[OGL LOG] solve : 64 ms
nonehipGKOCG:  Solving for p, Initial residual = 0.0543966, Final residual = 9.22499e-05, No Iterations 308
linear solve p 161359
time step continuity errors : sum local = 5.27523e-08, global = -6.75151e-21, cumulative = 2.66367e-20
[OGL LOG] init_host_sparsity_pattern : 39 ms
[OGL LOG] matrix not stored update host matrix
[OGL LOG] update_host_mtx : 22 ms
[OGL LOG] matrix is not yet sorted, sorting host matrix
[OGL LOG] sort_host_mtx_sparsity_pattern : 17 ms
[OGL LOG] sort_host_mtx : 10 ms
[OGL LOG] init_preconditioner : 0 ms
[OGL LOG] solve : 67 ms
nonehipGKOCG:  Solving for p, Initial residual = 0.0447787, Final residual = 9.75572e-05, No Iterations 306
linear solve p 164973
time step continuity errors : sum local = 5.59066e-08, global = -8.64419e-21, cumulative = 1.79925e-20
ExecutionTime = 4.46 s  ClockTime = 3 s

Time = 0.006

Courant Number mean: 0.0537211 max: 0.394649
DILUPBiCGStab:  Solving for Ux, Initial residual = 0.0187075, Final residual = 1.4829e-07, No Iterations 5
DILUPBiCGStab:  Solving for Uy, Initial residual = 0.0343188, Final residual = 3.03208e-07, No Iterations 5
DILUPBiCGStab:  Solving for Uz, Initial residual = 0.0587983, Final residual = 9.51529e-07, No Iterations 5
linear solve U 69152
[OGL LOG] init_host_sparsity_pattern : 39 ms
[OGL LOG] matrix not stored update host matrix
[OGL LOG] update_host_mtx : 22 ms
[OGL LOG] matrix is not yet sorted, sorting host matrix
[OGL LOG] sort_host_mtx_sparsity_pattern : 18 ms
[OGL LOG] sort_host_mtx : 10 ms
[OGL LOG] init_preconditioner : 0 ms
[OGL LOG] solve : 63 ms
nonehipGKOCG:  Solving for p, Initial residual = 0.0352481, Final residual = 9.32915e-05, No Iterations 306
linear solve p 161502
time step continuity errors : sum local = 5.31693e-08, global = -3.38684e-21, cumulative = 1.46057e-20
[OGL LOG] init_host_sparsity_pattern : 39 ms
[OGL LOG] matrix not stored update host matrix
[OGL LOG] update_host_mtx : 22 ms
[OGL LOG] matrix is not yet sorted, sorting host matrix
[OGL LOG] sort_host_mtx_sparsity_pattern : 17 ms
[OGL LOG] sort_host_mtx : 10 ms
[OGL LOG] init_preconditioner : 0 ms
[OGL LOG] solve : 31 ms
nonehipGKOCG:  Solving for p, Initial residual = 0.0292123, Final residual = 9.91119e-05, No Iterations 152
linear solve p 128862
time step continuity errors : sum local = 6.89603e-08, global = 4.20625e-21, cumulative = 1.88119e-20
ExecutionTime = 4.95 s  ClockTime = 4 s

Time = 0.007

Courant Number mean: 0.0570781 max: 0.398759
DILUPBiCGStab:  Solving for Ux, Initial residual = 0.0148946, Final residual = 9.74518e-08, No Iterations 5
DILUPBiCGStab:  Solving for Uy, Initial residual = 0.0275045, Final residual = 2.15344e-07, No Iterations 5
DILUPBiCGStab:  Solving for Uz, Initial residual = 0.0489047, Final residual = 6.23251e-07, No Iterations 5
linear solve U 69172
[OGL LOG] init_host_sparsity_pattern : 40 ms
[OGL LOG] matrix not stored update host matrix
[OGL LOG] update_host_mtx : 22 ms
[OGL LOG] matrix is not yet sorted, sorting host matrix
[OGL LOG] sort_host_mtx_sparsity_pattern : 17 ms
[OGL LOG] sort_host_mtx : 10 ms
[OGL LOG] init_preconditioner : 0 ms
[OGL LOG] solve : 63 ms
nonehipGKOCG:  Solving for p, Initial residual = 0.0260172, Final residual = 9.81591e-05, No Iterations 304
linear solve p 160542
time step continuity errors : sum local = 5.61643e-08, global = 4.71693e-21, cumulative = 2.35288e-20
[OGL LOG] init_host_sparsity_pattern : 39 ms
[OGL LOG] matrix not stored update host matrix
[OGL LOG] update_host_mtx : 22 ms
[OGL LOG] matrix is not yet sorted, sorting host matrix
[OGL LOG] sort_host_mtx_sparsity_pattern : 17 ms
[OGL LOG] sort_host_mtx : 10 ms
[OGL LOG] init_preconditioner : 0 ms
[OGL LOG] solve : 29 ms
nonehipGKOCG:  Solving for p, Initial residual = 0.022214, Final residual = 9.32981e-05, No Iterations 139
linear solve p 125902
time step continuity errors : sum local = 5.74511e-08, global = -1.7639e-20, cumulative = 5.88986e-21
ExecutionTime = 5.42 s  ClockTime = 4 s

Time = 0.008

Courant Number mean: 0.0599096 max: 0.401788
DILUPBiCGStab:  Solving for Ux, Initial residual = 0.0122697, Final residual = 7.95516e-08, No Iterations 5
DILUPBiCGStab:  Solving for Uy, Initial residual = 0.022744, Final residual = 1.10451e-07, No Iterations 5
DILUPBiCGStab:  Solving for Uz, Initial residual = 0.041409, Final residual = 4.26157e-07, No Iterations 5
linear solve U 68597
[OGL LOG] init_host_sparsity_pattern : 39 ms
[OGL LOG] matrix not stored update host matrix
[OGL LOG] update_host_mtx : 21 ms
[OGL LOG] matrix is not yet sorted, sorting host matrix
[OGL LOG] sort_host_mtx_sparsity_pattern : 17 ms
[OGL LOG] sort_host_mtx : 10 ms
[OGL LOG] init_preconditioner : 0 ms
[OGL LOG] solve : 62 ms
nonehipGKOCG:  Solving for p, Initial residual = 0.0196664, Final residual = 9.44143e-05, No Iterations 302
linear solve p 158171
time step continuity errors : sum local = 5.41628e-08, global = -5.75086e-21, cumulative = 1.39e-22
[OGL LOG] init_host_sparsity_pattern : 39 ms
[OGL LOG] matrix not stored update host matrix
[OGL LOG] update_host_mtx : 22 ms
[OGL LOG] matrix is not yet sorted, sorting host matrix
[OGL LOG] sort_host_mtx_sparsity_pattern : 17 ms
[OGL LOG] sort_host_mtx : 10 ms
[OGL LOG] init_preconditioner : 0 ms
[OGL LOG] solve : 62 ms
nonehipGKOCG:  Solving for p, Initial residual = 0.0170222, Final residual = 9.7631e-05, No Iterations 300
linear solve p 159015
time step continuity errors : sum local = 5.61241e-08, global = 1.15207e-20, cumulative = 1.16597e-20
ExecutionTime = 5.96 s  ClockTime = 5 s

Time = 0.009

Courant Number mean: 0.0623367 max: 0.404136
DILUPBiCGStab:  Solving for Ux, Initial residual = 0.010311, Final residual = 6.70925e-08, No Iterations 5
DILUPBiCGStab:  Solving for Uy, Initial residual = 0.0192381, Final residual = 9.20593e-08, No Iterations 5
DILUPBiCGStab:  Solving for Uz, Initial residual = 0.0352181, Final residual = 2.96433e-07, No Iterations 5
linear solve U 69107
[OGL LOG] init_host_sparsity_pattern : 42 ms
[OGL LOG] matrix not stored update host matrix
[OGL LOG] update_host_mtx : 23 ms
[OGL LOG] matrix is not yet sorted, sorting host matrix
[OGL LOG] sort_host_mtx_sparsity_pattern : 18 ms
[OGL LOG] sort_host_mtx : 10 ms
[OGL LOG] init_preconditioner : 0 ms
[OGL LOG] solve : 28 ms
nonehipGKOCG:  Solving for p, Initial residual = 0.0163035, Final residual = 9.94893e-05, No Iterations 135
linear solve p 130534
time step continuity errors : sum local = 6.17246e-08, global = -1.50754e-20, cumulative = -3.41568e-21
[OGL LOG] init_host_sparsity_pattern : 39 ms
[OGL LOG] matrix not stored update host matrix
[OGL LOG] update_host_mtx : 22 ms
[OGL LOG] matrix is not yet sorted, sorting host matrix
[OGL LOG] sort_host_mtx_sparsity_pattern : 17 ms
[OGL LOG] sort_host_mtx : 10 ms
[OGL LOG] init_preconditioner : 0 ms
[OGL LOG] solve : 27 ms
nonehipGKOCG:  Solving for p, Initial residual = 0.0142542, Final residual = 9.65455e-05, No Iterations 132
linear solve p 124477
time step continuity errors : sum local = 5.67121e-08, global = -6.47911e-21, cumulative = -9.89478e-21
ExecutionTime = 6.38 s  ClockTime = 5 s

Time = 0.01

Courant Number mean: 0.0644325 max: 0.406011
DILUPBiCGStab:  Solving for Ux, Initial residual = 0.00881616, Final residual = 6.13651e-08, No Iterations 5
DILUPBiCGStab:  Solving for Uy, Initial residual = 0.0165605, Final residual = 6.41673e-08, No Iterations 5
DILUPBiCGStab:  Solving for Uz, Initial residual = 0.0306053, Final residual = 2.27964e-07, No Iterations 5
linear solve U 69253
[OGL LOG] init_host_sparsity_pattern : 39 ms
[OGL LOG] matrix not stored update host matrix
[OGL LOG] update_host_mtx : 21 ms
[OGL LOG] matrix is not yet sorted, sorting host matrix
[OGL LOG] sort_host_mtx_sparsity_pattern : 17 ms
[OGL LOG] sort_host_mtx : 10 ms
[OGL LOG] init_preconditioner : 0 ms
[OGL LOG] solve : 27 ms
nonehipGKOCG:  Solving for p, Initial residual = 0.0138927, Final residual = 8.83511e-05, No Iterations 133
linear solve p 123384
time step continuity errors : sum local = 5.46698e-08, global = 2.00689e-20, cumulative = 1.01741e-20
[OGL LOG] init_host_sparsity_pattern : 39 ms
[OGL LOG] matrix not stored update host matrix
[OGL LOG] update_host_mtx : 22 ms
[OGL LOG] matrix is not yet sorted, sorting host matrix
[OGL LOG] sort_host_mtx_sparsity_pattern : 17 ms
[OGL LOG] sort_host_mtx : 10 ms
[OGL LOG] init_preconditioner : 0 ms
[OGL LOG] solve : 27 ms
nonehipGKOCG:  Solving for p, Initial residual = 0.0121919, Final residual = 9.79975e-05, No Iterations 128
linear solve p 123437
time step continuity errors : sum local = 5.79846e-08, global = -1.39317e-20, cumulative = -3.75758e-21
ExecutionTime = 6.79 s  ClockTime = 5 s

End

