/*---------------------------------------------------------------------------*\
  =========                 |
  \\      /  F ield         | OpenFOAM: The Open Source CFD Toolbox
   \\    /   O peration     | Website:  https://openfoam.org
    \\  /    A nd           | Version:  8
     \\/     M anipulation  |
\*---------------------------------------------------------------------------*/
Build  : 8-40a5a48f630f
Exec   : icoFoam
Date   : Jul 28 2021
Time   : 13:17:39
Host   : "uc2n449.localdomain"
PID    : 1430097
I/O    : uncollated
Case   : /pfs/data5/home/kit/scc/nq7776/code/OBR/lidDrivenCavity3D/Variation_mesh/70/Variation_matrix_solver/BiCGStab_DIC_Serial/base
nProcs : 1
sigFpe : Enabling floating point exception trapping (FOAM_SIGFPE).
fileModificationChecking : Monitoring run-time modified files using timeStampMaster (fileModificationSkew 10)
allowSystemOperations : Allowing user-supplied system call operations

// * * * * * * * * * * * * * * * * * * * * * * * * * * * * * * * * * * * * * //
Create time

Create mesh for time = 0

Reading transportProperties

Reading field p

Reading field U

Reading/calculating face flux field phi


Starting time loop

Time = 0.001

Courant Number mean: 0 max: 0
nonePBiCGStab:  Solving for Ux, Initial residual = 1, Final residual = 0.0584718, No Iterations 5
nonePBiCGStab:  Solving for Uy, Initial residual = 0, Final residual = 0, No Iterations 0
nonePBiCGStab:  Solving for Uz, Initial residual = 0, Final residual = 0, No Iterations 0
linear solve U 83
DICPBiCGStab:  Solving for p, Initial residual = 1, Final residual = 7.27964e-05, No Iterations 133
linear solve p 2132
time step continuity errors : sum local = 3.83096e-08, global = -1.11111e-20, cumulative = -1.11111e-20
DICPBiCGStab:  Solving for p, Initial residual = 0.681632, Final residual = 8.5067e-05, No Iterations 127
linear solve p 2050
time step continuity errors : sum local = 7.14783e-08, global = -4.11262e-21, cumulative = -1.52237e-20
ExecutionTime = 5.72 s  ClockTime = 6 s

Time = 0.002

Courant Number mean: 0.0344584 max: 0.51472
nonePBiCGStab:  Solving for Ux, Initial residual = 0.148831, Final residual = 0.0242611, No Iterations 5
nonePBiCGStab:  Solving for Uy, Initial residual = 0.37829, Final residual = 0.0558503, No Iterations 5
nonePBiCGStab:  Solving for Uz, Initial residual = 0.979451, Final residual = 0.179747, No Iterations 5
linear solve U 184
DICPBiCGStab:  Solving for p, Initial residual = 0.6851, Final residual = 8.93929e-05, No Iterations 54
linear solve p 868
time step continuity errors : sum local = 9.7251e-08, global = -1.90483e-21, cumulative = -1.71286e-20
DICPBiCGStab:  Solving for p, Initial residual = 0.604901, Final residual = 9.73645e-05, No Iterations 54
linear solve p 874
time step continuity errors : sum local = 9.23719e-08, global = 5.53468e-21, cumulative = -1.15939e-20
ExecutionTime = 7.83 s  ClockTime = 8 s

Time = 0.003

Courant Number mean: 0.0532602 max: 0.605945
nonePBiCGStab:  Solving for Ux, Initial residual = 0.0555387, Final residual = 0.00745596, No Iterations 5
nonePBiCGStab:  Solving for Uy, Initial residual = 0.135293, Final residual = 0.0233462, No Iterations 5
nonePBiCGStab:  Solving for Uz, Initial residual = 0.434616, Final residual = 0.0770674, No Iterations 5
linear solve U 183
DICPBiCGStab:  Solving for p, Initial residual = 0.612633, Final residual = 8.23677e-05, No Iterations 53
linear solve p 868
time step continuity errors : sum local = 5.3939e-08, global = -9.63526e-21, cumulative = -2.12291e-20
DICPBiCGStab:  Solving for p, Initial residual = 0.545431, Final residual = 4.82015e-05, No Iterations 57
linear solve p 925
time step continuity errors : sum local = 3.77134e-08, global = -1.2462e-21, cumulative = -2.24753e-20
ExecutionTime = 10 s  ClockTime = 10 s

Time = 0.004

Courant Number mean: 0.0638341 max: 0.623637
nonePBiCGStab:  Solving for Ux, Initial residual = 0.0334345, Final residual = 0.0038983, No Iterations 5
nonePBiCGStab:  Solving for Uy, Initial residual = 0.0886652, Final residual = 0.0110272, No Iterations 5
nonePBiCGStab:  Solving for Uz, Initial residual = 0.249863, Final residual = 0.0358234, No Iterations 5
linear solve U 186
DICPBiCGStab:  Solving for p, Initial residual = 0.427632, Final residual = 2.95323e-05, No Iterations 59
linear solve p 957
time step continuity errors : sum local = 2.50765e-08, global = -8.5501e-21, cumulative = -3.10254e-20
DICPBiCGStab:  Solving for p, Initial residual = 0.358385, Final residual = 2.64819e-05, No Iterations 61
linear solve p 987
time step continuity errors : sum local = 2.44403e-08, global = -1.46979e-21, cumulative = -3.24952e-20
ExecutionTime = 12.32 s  ClockTime = 12 s

Time = 0.005

Courant Number mean: 0.0724642 max: 0.634644
nonePBiCGStab:  Solving for Ux, Initial residual = 0.023957, Final residual = 0.00249087, No Iterations 5
nonePBiCGStab:  Solving for Uy, Initial residual = 0.057169, Final residual = 0.00625327, No Iterations 5
nonePBiCGStab:  Solving for Uz, Initial residual = 0.124674, Final residual = 0.0210447, No Iterations 5
linear solve U 186
DICPBiCGStab:  Solving for p, Initial residual = 0.374225, Final residual = 8.06705e-05, No Iterations 52
linear solve p 850
time step continuity errors : sum local = 4.29719e-08, global = -3.81019e-21, cumulative = -3.63054e-20
DICPBiCGStab:  Solving for p, Initial residual = 0.321132, Final residual = 9.82649e-05, No Iterations 50
linear solve p 809
time step continuity errors : sum local = 5.35053e-08, global = -2.92591e-21, cumulative = -3.92313e-20
ExecutionTime = 14.37 s  ClockTime = 14 s

Time = 0.006

Courant Number mean: 0.0792287 max: 0.641385
nonePBiCGStab:  Solving for Ux, Initial residual = 0.0179353, Final residual = 0.00152718, No Iterations 5
nonePBiCGStab:  Solving for Uy, Initial residual = 0.0427418, Final residual = 0.00324762, No Iterations 5
nonePBiCGStab:  Solving for Uz, Initial residual = 0.10139, Final residual = 0.0146604, No Iterations 5
linear solve U 183
DICPBiCGStab:  Solving for p, Initial residual = 0.267517, Final residual = 9.39042e-05, No Iterations 52
linear solve p 853
time step continuity errors : sum local = 5.17418e-08, global = 8.61022e-21, cumulative = -3.06211e-20
DICPBiCGStab:  Solving for p, Initial residual = 0.224349, Final residual = 1.76317e-05, No Iterations 55
linear solve p 891
time step continuity errors : sum local = 1.64273e-08, global = -5.93389e-21, cumulative = -3.6555e-20
ExecutionTime = 16.49 s  ClockTime = 16 s

Time = 0.007

Courant Number mean: 0.0849285 max: 0.646
nonePBiCGStab:  Solving for Ux, Initial residual = 0.0141727, Final residual = 0.00098511, No Iterations 5
nonePBiCGStab:  Solving for Uy, Initial residual = 0.0334711, Final residual = 0.00228708, No Iterations 5
nonePBiCGStab:  Solving for Uz, Initial residual = 0.0709772, Final residual = 0.00761744, No Iterations 5
linear solve U 183
DICPBiCGStab:  Solving for p, Initial residual = 0.219902, Final residual = 9.12514e-05, No Iterations 53
linear solve p 862
time step continuity errors : sum local = 4.46127e-08, global = -1.7967e-20, cumulative = -5.4522e-20
DICPBiCGStab:  Solving for p, Initial residual = 0.186052, Final residual = 9.55454e-05, No Iterations 48
linear solve p 785
time step continuity errors : sum local = 4.86127e-08, global = 3.46014e-21, cumulative = -5.10618e-20
ExecutionTime = 18.53 s  ClockTime = 18 s

Time = 0.008

Courant Number mean: 0.0897161 max: 0.64953
nonePBiCGStab:  Solving for Ux, Initial residual = 0.0114402, Final residual = 0.000678551, No Iterations 5
nonePBiCGStab:  Solving for Uy, Initial residual = 0.0269901, Final residual = 0.00131277, No Iterations 5
nonePBiCGStab:  Solving for Uz, Initial residual = 0.0603474, Final residual = 0.006947, No Iterations 5
linear solve U 182
DICPBiCGStab:  Solving for p, Initial residual = 0.16222, Final residual = 9.02541e-05, No Iterations 45
linear solve p 728
time step continuity errors : sum local = 5.13654e-08, global = -1.63646e-20, cumulative = -6.74264e-20
DICPBiCGStab:  Solving for p, Initial residual = 0.136341, Final residual = 6.47084e-05, No Iterations 51
linear solve p 827
time step continuity errors : sum local = 3.69581e-08, global = 9.45155e-21, cumulative = -5.79749e-20
ExecutionTime = 20.46 s  ClockTime = 20 s

Time = 0.009

Courant Number mean: 0.0938431 max: 0.652163
nonePBiCGStab:  Solving for Ux, Initial residual = 0.00959252, Final residual = 0.000532999, No Iterations 5
nonePBiCGStab:  Solving for Uy, Initial residual = 0.0226431, Final residual = 0.000926187, No Iterations 5
nonePBiCGStab:  Solving for Uz, Initial residual = 0.0505355, Final residual = 0.00403806, No Iterations 5
linear solve U 184
DICPBiCGStab:  Solving for p, Initial residual = 0.128815, Final residual = 7.95463e-05, No Iterations 48
linear solve p 783
time step continuity errors : sum local = 3.51307e-08, global = 5.19928e-21, cumulative = -5.27756e-20
DICPBiCGStab:  Solving for p, Initial residual = 0.108712, Final residual = 5.93551e-05, No Iterations 47
linear solve p 758
time step continuity errors : sum local = 2.93785e-08, global = -1.77684e-20, cumulative = -7.0544e-20
ExecutionTime = 22.37 s  ClockTime = 22 s

Time = 0.01

Courant Number mean: 0.0974279 max: 0.654393
nonePBiCGStab:  Solving for Ux, Initial residual = 0.00805941, Final residual = 0.00041008, No Iterations 5
nonePBiCGStab:  Solving for Uy, Initial residual = 0.018984, Final residual = 0.000646635, No Iterations 5
nonePBiCGStab:  Solving for Uz, Initial residual = 0.0424234, Final residual = 0.00393763, No Iterations 5
linear solve U 183
DICPBiCGStab:  Solving for p, Initial residual = 0.0966418, Final residual = 9.57801e-05, No Iterations 45
linear solve p 739
time step continuity errors : sum local = 5.90725e-08, global = 5.07269e-21, cumulative = -6.54713e-20
DICPBiCGStab:  Solving for p, Initial residual = 0.0816021, Final residual = 6.88258e-05, No Iterations 47
linear solve p 761
time step continuity errors : sum local = 3.90215e-08, global = -7.40619e-22, cumulative = -6.6212e-20
ExecutionTime = 24.25 s  ClockTime = 24 s

End

