/*---------------------------------------------------------------------------*\
  =========                 |
  \\      /  F ield         | OpenFOAM: The Open Source CFD Toolbox
   \\    /   O peration     | Website:  https://openfoam.org
    \\  /    A nd           | Version:  8
     \\/     M anipulation  |
\*---------------------------------------------------------------------------*/
Build  : 8-ef60d22ea792
Exec   : icoFoam
Date   : Jul 29 2021
Time   : 03:20:58
Host   : "uc2n489.localdomain"
PID    : 3420401
I/O    : uncollated
Case   : /pfs/data5/home/kit/scc/nq7776/code/OBR/lidDrivenCavity3D/Variation_mesh/70/Variation_matrix_solver/CG_NoPrecond_CUDA/base
nProcs : 1
sigFpe : Enabling floating point exception trapping (FOAM_SIGFPE).
fileModificationChecking : Monitoring run-time modified files using timeStampMaster (fileModificationSkew 10)
allowSystemOperations : Allowing user-supplied system call operations

// * * * * * * * * * * * * * * * * * * * * * * * * * * * * * * * * * * * * * //
Create time

Create mesh for time = 0

Reading transportProperties

Reading field p

Reading field U

Reading/calculating face flux field phi


Starting time loop

Time = 0.001

Courant Number mean: 0 max: 0
DILUPBiCGStab:  Solving for Ux, Initial residual = 1, Final residual = 0.00143011, No Iterations 5
DILUPBiCGStab:  Solving for Uy:  solution singularity
DILUPBiCGStab:  Solving for Uz:  solution singularity
linear solve U 168564
[OGL LOG] init_host_sparsity_pattern : 96 ms
[OGL LOG] matrix not stored update host matrix
[OGL LOG] update_host_mtx : 52 ms
[OGL LOG] matrix is not yet sorted, compute sorting idxs
[OGL LOG] compute_sort : 2949 ms
[OGL LOG] matrix is not yet sorted, sorting host matrix
[OGL LOG] sort_host_mtx_sparsity_pattern : 70 ms
[OGL LOG] sort_host_mtx : 39 ms
[OGL LOG] init_preconditioner : 0 ms
[OGL LOG] solve : 314 ms
nonecudaGKOCG:  Solving for p, Initial residual = 1, Final residual = 9.58465e-05, No Iterations 549
linear solve p 4280295
time step continuity errors : sum local = 5.63747e-08, global = 4.23113e-21, cumulative = 4.23113e-21
[OGL LOG] init_host_sparsity_pattern : 91 ms
[OGL LOG] matrix not stored update host matrix
[OGL LOG] update_host_mtx : 52 ms
[OGL LOG] matrix is not yet sorted, sorting host matrix
[OGL LOG] sort_host_mtx_sparsity_pattern : 70 ms
[OGL LOG] sort_host_mtx : 35 ms
[OGL LOG] init_preconditioner : 0 ms
[OGL LOG] solve : 308 ms
nonecudaGKOCG:  Solving for p, Initial residual = 0.723818, Final residual = 9.7223e-05, No Iterations 542
linear solve p 578225
time step continuity errors : sum local = 7.60169e-08, global = -1.07447e-20, cumulative = -6.51357e-21
ExecutionTime = 6.46 s  ClockTime = 7 s

Time = 0.002

Courant Number mean: 0.0394021 max: 0.518352
DILUPBiCGStab:  Solving for Ux, Initial residual = 0.151291, Final residual = 0.000459811, No Iterations 5
DILUPBiCGStab:  Solving for Uy, Initial residual = 0.361767, Final residual = 0.000929268, No Iterations 5
DILUPBiCGStab:  Solving for Uz, Initial residual = 0.984714, Final residual = 0.0030295, No Iterations 5
linear solve U 334426
[OGL LOG] init_host_sparsity_pattern : 92 ms
[OGL LOG] matrix not stored update host matrix
[OGL LOG] update_host_mtx : 46 ms
[OGL LOG] matrix is not yet sorted, sorting host matrix
[OGL LOG] sort_host_mtx_sparsity_pattern : 63 ms
[OGL LOG] sort_host_mtx : 35 ms
[OGL LOG] init_preconditioner : 0 ms
[OGL LOG] solve : 305 ms
nonecudaGKOCG:  Solving for p, Initial residual = 0.674278, Final residual = 9.92769e-05, No Iterations 538
linear solve p 564307
time step continuity errors : sum local = 8.49489e-08, global = 6.26332e-21, cumulative = -2.50251e-22
[OGL LOG] init_host_sparsity_pattern : 90 ms
[OGL LOG] matrix not stored update host matrix
[OGL LOG] update_host_mtx : 45 ms
[OGL LOG] matrix is not yet sorted, sorting host matrix
[OGL LOG] sort_host_mtx_sparsity_pattern : 65 ms
[OGL LOG] sort_host_mtx : 35 ms
[OGL LOG] init_preconditioner : 0 ms
[OGL LOG] solve : 305 ms
nonecudaGKOCG:  Solving for p, Initial residual = 0.601596, Final residual = 9.45918e-05, No Iterations 537
linear solve p 563171
time step continuity errors : sum local = 8.2771e-08, global = 9.08377e-21, cumulative = 8.83352e-21
ExecutionTime = 8.14 s  ClockTime = 8 s

Time = 0.003

Courant Number mean: 0.0591359 max: 0.616284
DILUPBiCGStab:  Solving for Ux, Initial residual = 0.0520841, Final residual = 0.00010812, No Iterations 5
DILUPBiCGStab:  Solving for Uy, Initial residual = 0.118681, Final residual = 0.000223844, No Iterations 5
DILUPBiCGStab:  Solving for Uz, Initial residual = 0.503948, Final residual = 0.00144608, No Iterations 5
linear solve U 334055
[OGL LOG] init_host_sparsity_pattern : 90 ms
[OGL LOG] matrix not stored update host matrix
[OGL LOG] update_host_mtx : 45 ms
[OGL LOG] matrix is not yet sorted, sorting host matrix
[OGL LOG] sort_host_mtx_sparsity_pattern : 63 ms
[OGL LOG] sort_host_mtx : 35 ms
[OGL LOG] init_preconditioner : 0 ms
[OGL LOG] solve : 309 ms
nonecudaGKOCG:  Solving for p, Initial residual = 0.609277, Final residual = 9.4427e-05, No Iterations 535
linear solve p 565028
time step continuity errors : sum local = 5.78972e-08, global = 1.45582e-21, cumulative = 1.02893e-20
[OGL LOG] init_host_sparsity_pattern : 90 ms
[OGL LOG] matrix not stored update host matrix
[OGL LOG] update_host_mtx : 45 ms
[OGL LOG] matrix is not yet sorted, sorting host matrix
[OGL LOG] sort_host_mtx_sparsity_pattern : 63 ms
[OGL LOG] sort_host_mtx : 35 ms
[OGL LOG] init_preconditioner : 0 ms
[OGL LOG] solve : 305 ms
nonecudaGKOCG:  Solving for p, Initial residual = 0.557387, Final residual = 9.09476e-05, No Iterations 534
linear solve p 561317
time step continuity errors : sum local = 5.41411e-08, global = -1.23951e-20, cumulative = -2.10574e-21
ExecutionTime = 9.79 s  ClockTime = 10 s

Time = 0.004

Courant Number mean: 0.0695969 max: 0.629494
DILUPBiCGStab:  Solving for Ux, Initial residual = 0.0286857, Final residual = 5.77661e-05, No Iterations 5
DILUPBiCGStab:  Solving for Uy, Initial residual = 0.0790585, Final residual = 0.000132076, No Iterations 5
DILUPBiCGStab:  Solving for Uz, Initial residual = 0.262004, Final residual = 0.000582517, No Iterations 5
linear solve U 332659
[OGL LOG] init_host_sparsity_pattern : 93 ms
[OGL LOG] matrix not stored update host matrix
[OGL LOG] update_host_mtx : 47 ms
[OGL LOG] matrix is not yet sorted, sorting host matrix
[OGL LOG] sort_host_mtx_sparsity_pattern : 63 ms
[OGL LOG] sort_host_mtx : 35 ms
[OGL LOG] init_preconditioner : 0 ms
[OGL LOG] solve : 301 ms
nonecudaGKOCG:  Solving for p, Initial residual = 0.386005, Final residual = 9.90934e-05, No Iterations 524
linear solve p 561528
time step continuity errors : sum local = 5.28411e-08, global = -4.96182e-21, cumulative = -7.06755e-21
[OGL LOG] init_host_sparsity_pattern : 90 ms
[OGL LOG] matrix not stored update host matrix
[OGL LOG] update_host_mtx : 45 ms
[OGL LOG] matrix is not yet sorted, sorting host matrix
[OGL LOG] sort_host_mtx_sparsity_pattern : 63 ms
[OGL LOG] sort_host_mtx : 35 ms
[OGL LOG] init_preconditioner : 0 ms
[OGL LOG] solve : 299 ms
nonecudaGKOCG:  Solving for p, Initial residual = 0.325684, Final residual = 9.92519e-05, No Iterations 522
linear solve p 554616
time step continuity errors : sum local = 5.35829e-08, global = -2.02765e-21, cumulative = -9.0952e-21
ExecutionTime = 11.44 s  ClockTime = 12 s

Time = 0.005

Courant Number mean: 0.0778345 max: 0.639336
DILUPBiCGStab:  Solving for Ux, Initial residual = 0.0206098, Final residual = 3.13998e-05, No Iterations 5
DILUPBiCGStab:  Solving for Uy, Initial residual = 0.0456757, Final residual = 6.10452e-05, No Iterations 5
DILUPBiCGStab:  Solving for Uz, Initial residual = 0.0899407, Final residual = 0.000190891, No Iterations 5
linear solve U 336273
[OGL LOG] init_host_sparsity_pattern : 90 ms
[OGL LOG] matrix not stored update host matrix
[OGL LOG] update_host_mtx : 47 ms
[OGL LOG] matrix is not yet sorted, sorting host matrix
[OGL LOG] sort_host_mtx_sparsity_pattern : 66 ms
[OGL LOG] sort_host_mtx : 35 ms
[OGL LOG] init_preconditioner : 0 ms
[OGL LOG] solve : 280 ms
nonecudaGKOCG:  Solving for p, Initial residual = 0.289486, Final residual = 9.26474e-05, No Iterations 490
linear solve p 541848
time step continuity errors : sum local = 4.1233e-08, global = -9.56959e-21, cumulative = -1.86648e-20
[OGL LOG] init_host_sparsity_pattern : 90 ms
[OGL LOG] matrix not stored update host matrix
[OGL LOG] update_host_mtx : 45 ms
[OGL LOG] matrix is not yet sorted, sorting host matrix
[OGL LOG] sort_host_mtx_sparsity_pattern : 63 ms
[OGL LOG] sort_host_mtx : 35 ms
[OGL LOG] init_preconditioner : 0 ms
[OGL LOG] solve : 278 ms
nonecudaGKOCG:  Solving for p, Initial residual = 0.247236, Final residual = 9.46527e-05, No Iterations 490
linear solve p 534100
time step continuity errors : sum local = 4.1809e-08, global = 1.06468e-21, cumulative = -1.76001e-20
ExecutionTime = 13.06 s  ClockTime = 13 s

Time = 0.006

Courant Number mean: 0.0841384 max: 0.645082
DILUPBiCGStab:  Solving for Ux, Initial residual = 0.0148949, Final residual = 2.19775e-05, No Iterations 5
DILUPBiCGStab:  Solving for Uy, Initial residual = 0.0354602, Final residual = 3.6645e-05, No Iterations 5
DILUPBiCGStab:  Solving for Uz, Initial residual = 0.079662, Final residual = 0.000157457, No Iterations 5
linear solve U 343692
[OGL LOG] init_host_sparsity_pattern : 90 ms
[OGL LOG] matrix not stored update host matrix
[OGL LOG] update_host_mtx : 45 ms
[OGL LOG] matrix is not yet sorted, sorting host matrix
[OGL LOG] sort_host_mtx_sparsity_pattern : 65 ms
[OGL LOG] sort_host_mtx : 35 ms
[OGL LOG] init_preconditioner : 0 ms
[OGL LOG] solve : 139 ms
nonecudaGKOCG:  Solving for p, Initial residual = 0.177353, Final residual = 9.99582e-05, No Iterations 242
linear solve p 396583
time step continuity errors : sum local = 5.12304e-08, global = 6.5696e-21, cumulative = -1.10305e-20
[OGL LOG] init_host_sparsity_pattern : 90 ms
[OGL LOG] matrix not stored update host matrix
[OGL LOG] update_host_mtx : 45 ms
[OGL LOG] matrix is not yet sorted, sorting host matrix
[OGL LOG] sort_host_mtx_sparsity_pattern : 63 ms
[OGL LOG] sort_host_mtx : 35 ms
[OGL LOG] init_preconditioner : 0 ms
[OGL LOG] solve : 137 ms
nonecudaGKOCG:  Solving for p, Initial residual = 0.146702, Final residual = 9.77424e-05, No Iterations 239
linear solve p 393297
time step continuity errors : sum local = 4.48848e-08, global = -4.23801e-21, cumulative = -1.52685e-20
ExecutionTime = 14.4 s  ClockTime = 15 s

Time = 0.007

Courant Number mean: 0.0893566 max: 0.648974
DILUPBiCGStab:  Solving for Ux, Initial residual = 0.0118841, Final residual = 1.23438e-05, No Iterations 5
DILUPBiCGStab:  Solving for Uy, Initial residual = 0.0272466, Final residual = 2.86799e-05, No Iterations 5
DILUPBiCGStab:  Solving for Uz, Initial residual = 0.0498467, Final residual = 7.73962e-05, No Iterations 5
linear solve U 336160
[OGL LOG] init_host_sparsity_pattern : 90 ms
[OGL LOG] matrix not stored update host matrix
[OGL LOG] update_host_mtx : 45 ms
[OGL LOG] matrix is not yet sorted, sorting host matrix
[OGL LOG] sort_host_mtx_sparsity_pattern : 63 ms
[OGL LOG] sort_host_mtx : 35 ms
[OGL LOG] init_preconditioner : 0 ms
[OGL LOG] solve : 139 ms
nonecudaGKOCG:  Solving for p, Initial residual = 0.124163, Final residual = 9.52388e-05, No Iterations 239
linear solve p 394800
time step continuity errors : sum local = 3.98795e-08, global = -1.30385e-21, cumulative = -1.65724e-20
[OGL LOG] init_host_sparsity_pattern : 90 ms
[OGL LOG] matrix not stored update host matrix
[OGL LOG] update_host_mtx : 45 ms
[OGL LOG] matrix is not yet sorted, sorting host matrix
[OGL LOG] sort_host_mtx_sparsity_pattern : 63 ms
[OGL LOG] sort_host_mtx : 35 ms
[OGL LOG] init_preconditioner : 0 ms
[OGL LOG] solve : 136 ms
nonecudaGKOCG:  Solving for p, Initial residual = 0.103655, Final residual = 9.81116e-05, No Iterations 236
linear solve p 391605
time step continuity errors : sum local = 4.08536e-08, global = 2.15738e-21, cumulative = -1.4415e-20
ExecutionTime = 15.71 s  ClockTime = 16 s

Time = 0.008

Courant Number mean: 0.0937058 max: 0.652003
DILUPBiCGStab:  Solving for Ux, Initial residual = 0.0096954, Final residual = 1.01182e-05, No Iterations 5
DILUPBiCGStab:  Solving for Uy, Initial residual = 0.0223547, Final residual = 1.32853e-05, No Iterations 5
DILUPBiCGStab:  Solving for Uz, Initial residual = 0.0442187, Final residual = 5.68449e-05, No Iterations 5
linear solve U 332805
[OGL LOG] init_host_sparsity_pattern : 90 ms
[OGL LOG] matrix not stored update host matrix
[OGL LOG] update_host_mtx : 45 ms
[OGL LOG] matrix is not yet sorted, sorting host matrix
[OGL LOG] sort_host_mtx_sparsity_pattern : 63 ms
[OGL LOG] sort_host_mtx : 37 ms
[OGL LOG] init_preconditioner : 0 ms
[OGL LOG] solve : 137 ms
nonecudaGKOCG:  Solving for p, Initial residual = 0.080538, Final residual = 9.80267e-05, No Iterations 236
linear solve p 398555
time step continuity errors : sum local = 4.88061e-08, global = 1.74367e-20, cumulative = 3.02168e-21
[OGL LOG] init_host_sparsity_pattern : 93 ms
[OGL LOG] matrix not stored update host matrix
[OGL LOG] update_host_mtx : 45 ms
[OGL LOG] matrix is not yet sorted, sorting host matrix
[OGL LOG] sort_host_mtx_sparsity_pattern : 63 ms
[OGL LOG] sort_host_mtx : 35 ms
[OGL LOG] init_preconditioner : 0 ms
[OGL LOG] solve : 131 ms
nonecudaGKOCG:  Solving for p, Initial residual = 0.0665073, Final residual = 9.7577e-05, No Iterations 226
linear solve p 389702
time step continuity errors : sum local = 4.3001e-08, global = 2.03652e-20, cumulative = 2.33869e-20
ExecutionTime = 17.04 s  ClockTime = 17 s

Time = 0.009

Courant Number mean: 0.0974484 max: 0.654264
DILUPBiCGStab:  Solving for Ux, Initial residual = 0.00810261, Final residual = 5.39836e-06, No Iterations 5
DILUPBiCGStab:  Solving for Uy, Initial residual = 0.018858, Final residual = 1.31795e-05, No Iterations 5
DILUPBiCGStab:  Solving for Uz, Initial residual = 0.0361784, Final residual = 4.43595e-05, No Iterations 5
linear solve U 332757
[OGL LOG] init_host_sparsity_pattern : 90 ms
[OGL LOG] matrix not stored update host matrix
[OGL LOG] update_host_mtx : 45 ms
[OGL LOG] matrix is not yet sorted, sorting host matrix
[OGL LOG] sort_host_mtx_sparsity_pattern : 63 ms
[OGL LOG] sort_host_mtx : 35 ms
[OGL LOG] init_preconditioner : 0 ms
[OGL LOG] solve : 131 ms
nonecudaGKOCG:  Solving for p, Initial residual = 0.0584458, Final residual = 9.79728e-05, No Iterations 227
linear solve p 386285
time step continuity errors : sum local = 4.29219e-08, global = 2.11141e-20, cumulative = 4.45009e-20
[OGL LOG] init_host_sparsity_pattern : 92 ms
[OGL LOG] matrix not stored update host matrix
[OGL LOG] update_host_mtx : 47 ms
[OGL LOG] matrix is not yet sorted, sorting host matrix
[OGL LOG] sort_host_mtx_sparsity_pattern : 66 ms
[OGL LOG] sort_host_mtx : 35 ms
[OGL LOG] init_preconditioner : 0 ms
[OGL LOG] solve : 129 ms
nonecudaGKOCG:  Solving for p, Initial residual = 0.0487485, Final residual = 9.44535e-05, No Iterations 224
linear solve p 393210
time step continuity errors : sum local = 3.8392e-08, global = -5.45185e-21, cumulative = 3.90491e-20
ExecutionTime = 18.35 s  ClockTime = 18 s

Time = 0.01

Courant Number mean: 0.100691 max: 0.656135
DILUPBiCGStab:  Solving for Ux, Initial residual = 0.00695121, Final residual = 4.38257e-06, No Iterations 5
DILUPBiCGStab:  Solving for Uy, Initial residual = 0.016099, Final residual = 6.70761e-06, No Iterations 5
DILUPBiCGStab:  Solving for Uz, Initial residual = 0.0321094, Final residual = 3.30416e-05, No Iterations 5
linear solve U 333310
[OGL LOG] init_host_sparsity_pattern : 90 ms
[OGL LOG] matrix not stored update host matrix
[OGL LOG] update_host_mtx : 45 ms
[OGL LOG] matrix is not yet sorted, sorting host matrix
[OGL LOG] sort_host_mtx_sparsity_pattern : 63 ms
[OGL LOG] sort_host_mtx : 35 ms
[OGL LOG] init_preconditioner : 0 ms
[OGL LOG] solve : 275 ms
nonecudaGKOCG:  Solving for p, Initial residual = 0.0396252, Final residual = 9.67084e-05, No Iterations 480
linear solve p 531695
time step continuity errors : sum local = 3.87018e-08, global = -2.51325e-21, cumulative = 3.65358e-20
[OGL LOG] init_host_sparsity_pattern : 90 ms
[OGL LOG] matrix not stored update host matrix
[OGL LOG] update_host_mtx : 45 ms
[OGL LOG] matrix is not yet sorted, sorting host matrix
[OGL LOG] sort_host_mtx_sparsity_pattern : 63 ms
[OGL LOG] sort_host_mtx : 35 ms
[OGL LOG] init_preconditioner : 0 ms
[OGL LOG] solve : 273 ms
nonecudaGKOCG:  Solving for p, Initial residual = 0.0333899, Final residual = 9.42147e-05, No Iterations 479
linear solve p 528240
time step continuity errors : sum local = 3.77315e-08, global = 2.06561e-21, cumulative = 3.86014e-20
ExecutionTime = 19.93 s  ClockTime = 20 s

End

