/*---------------------------------------------------------------------------*\
  =========                 |
  \\      /  F ield         | OpenFOAM: The Open Source CFD Toolbox
   \\    /   O peration     | Website:  https://openfoam.org
    \\  /    A nd           | Version:  8
     \\/     M anipulation  |
\*---------------------------------------------------------------------------*/
Build  : 8-ef60d22ea792
Exec   : icoFoam
Date   : Jul 29 2021
Time   : 00:43:47
Host   : "uc2n414.localdomain"
PID    : 2841382
I/O    : uncollated
Case   : /pfs/data5/home/kit/scc/nq7776/code/OBR/lidDrivenCavity3D/Variation_mesh/25/Variation_matrix_solver/BiCGStab_NoPrecond_OMP/base
nProcs : 1
sigFpe : Enabling floating point exception trapping (FOAM_SIGFPE).
fileModificationChecking : Monitoring run-time modified files using timeStampMaster (fileModificationSkew 10)
allowSystemOperations : Allowing user-supplied system call operations

// * * * * * * * * * * * * * * * * * * * * * * * * * * * * * * * * * * * * * //
Create time

Create mesh for time = 0

Reading transportProperties

Reading field p

Reading field U

Reading/calculating face flux field phi


Starting time loop

Time = 0.001

Courant Number mean: 0 max: 0
DILUPBiCGStab:  Solving for Ux, Initial residual = 1, Final residual = 1.01737e-08, No Iterations 5
DILUPBiCGStab:  Solving for Uy:  solution singularity
DILUPBiCGStab:  Solving for Uz:  solution singularity
linear solve U 6033
[OGL LOG] init_host_sparsity_pattern : 4 ms
[OGL LOG] matrix not stored update host matrix
[OGL LOG] update_host_mtx : 2 ms
[OGL LOG] matrix is not yet sorted, compute sorting idxs
[OGL LOG] compute_sort : 115 ms
[OGL LOG] matrix is not yet sorted, sorting host matrix
[OGL LOG] sort_host_mtx_sparsity_pattern : 3 ms
[OGL LOG] sort_host_mtx : 1 ms
[OGL LOG] init_preconditioner : 0 ms
[OGL LOG] solve : 146 ms
noneompGKOBiCGStab:  Solving for p, Initial residual = 1, Final residual = 8.96046e-05, No Iterations 157
linear solve p 279028
time step continuity errors : sum local = 8.19491e-06, global = -1.15144e-20, cumulative = -1.15144e-20
[OGL LOG] init_host_sparsity_pattern : 4 ms
[OGL LOG] matrix not stored update host matrix
[OGL LOG] update_host_mtx : 2 ms
[OGL LOG] matrix is not yet sorted, sorting host matrix
[OGL LOG] sort_host_mtx_sparsity_pattern : 3 ms
[OGL LOG] sort_host_mtx : 1 ms
[OGL LOG] init_preconditioner : 0 ms
[OGL LOG] solve : 140 ms
noneompGKOBiCGStab:  Solving for p, Initial residual = 0.483854, Final residual = 7.96677e-05, No Iterations 151
linear solve p 155246
time step continuity errors : sum local = 3.08152e-07, global = -3.53564e-21, cumulative = -1.505e-20
ExecutionTime = 0.53 s  ClockTime = 0 s

Time = 0.002

Courant Number mean: 0.0119822 max: 0.106547
DILUPBiCGStab:  Solving for Ux, Initial residual = 0.212253, Final residual = 1.44964e-09, No Iterations 5
DILUPBiCGStab:  Solving for Uy, Initial residual = 0.283518, Final residual = 1.37047e-09, No Iterations 5
DILUPBiCGStab:  Solving for Uz, Initial residual = 0.897744, Final residual = 7.60268e-09, No Iterations 5
linear solve U 10471
[OGL LOG] init_host_sparsity_pattern : 4 ms
[OGL LOG] matrix not stored update host matrix
[OGL LOG] update_host_mtx : 2 ms
[OGL LOG] matrix is not yet sorted, sorting host matrix
[OGL LOG] sort_host_mtx_sparsity_pattern : 3 ms
[OGL LOG] sort_host_mtx : 1 ms
[OGL LOG] init_preconditioner : 0 ms
[OGL LOG] solve : 134 ms
noneompGKOBiCGStab:  Solving for p, Initial residual = 0.291905, Final residual = 7.43347e-05, No Iterations 144
linear solve p 148726
time step continuity errors : sum local = 1.91481e-07, global = 1.73702e-20, cumulative = 2.32018e-21
[OGL LOG] init_host_sparsity_pattern : 4 ms
[OGL LOG] matrix not stored update host matrix
[OGL LOG] update_host_mtx : 2 ms
[OGL LOG] matrix is not yet sorted, sorting host matrix
[OGL LOG] sort_host_mtx_sparsity_pattern : 3 ms
[OGL LOG] sort_host_mtx : 1 ms
[OGL LOG] init_preconditioner : 0 ms
[OGL LOG] solve : 129 ms
noneompGKOBiCGStab:  Solving for p, Initial residual = 0.194119, Final residual = 9.05926e-05, No Iterations 139
linear solve p 143953
time step continuity errors : sum local = 3.15024e-07, global = -8.34367e-21, cumulative = -6.02349e-21
ExecutionTime = 0.84 s  ClockTime = 0 s

Time = 0.003

Courant Number mean: 0.0188615 max: 0.153592
DILUPBiCGStab:  Solving for Ux, Initial residual = 0.0900176, Final residual = 5.48195e-10, No Iterations 5
DILUPBiCGStab:  Solving for Uy, Initial residual = 0.124717, Final residual = 4.8593e-10, No Iterations 5
DILUPBiCGStab:  Solving for Uz, Initial residual = 0.271273, Final residual = 2.05599e-09, No Iterations 5
linear solve U 10509
[OGL LOG] init_host_sparsity_pattern : 4 ms
[OGL LOG] matrix not stored update host matrix
[OGL LOG] update_host_mtx : 2 ms
[OGL LOG] matrix is not yet sorted, sorting host matrix
[OGL LOG] sort_host_mtx_sparsity_pattern : 3 ms
[OGL LOG] sort_host_mtx : 1 ms
[OGL LOG] init_preconditioner : 0 ms
[OGL LOG] solve : 122 ms
noneompGKOBiCGStab:  Solving for p, Initial residual = 0.104422, Final residual = 5.96802e-05, No Iterations 132
linear solve p 136347
time step continuity errors : sum local = 3.34939e-07, global = 2.28591e-21, cumulative = -3.73758e-21
[OGL LOG] init_host_sparsity_pattern : 4 ms
[OGL LOG] matrix not stored update host matrix
[OGL LOG] update_host_mtx : 2 ms
[OGL LOG] matrix is not yet sorted, sorting host matrix
[OGL LOG] sort_host_mtx_sparsity_pattern : 3 ms
[OGL LOG] sort_host_mtx : 1 ms
[OGL LOG] init_preconditioner : 0 ms
[OGL LOG] solve : 121 ms
noneompGKOBiCGStab:  Solving for p, Initial residual = 0.0714874, Final residual = 9.84773e-05, No Iterations 131
linear solve p 135486
time step continuity errors : sum local = 2.1169e-07, global = -1.76074e-20, cumulative = -2.13449e-20
ExecutionTime = 1.12 s  ClockTime = 1 s

Time = 0.004

Courant Number mean: 0.0233291 max: 0.175145
DILUPBiCGStab:  Solving for Ux, Initial residual = 0.0520989, Final residual = 2.37832e-10, No Iterations 5
DILUPBiCGStab:  Solving for Uy, Initial residual = 0.0742142, Final residual = 1.97859e-10, No Iterations 5
DILUPBiCGStab:  Solving for Uz, Initial residual = 0.129882, Final residual = 5.09953e-10, No Iterations 5
linear solve U 10545
[OGL LOG] init_host_sparsity_pattern : 4 ms
[OGL LOG] matrix not stored update host matrix
[OGL LOG] update_host_mtx : 2 ms
[OGL LOG] matrix is not yet sorted, sorting host matrix
[OGL LOG] sort_host_mtx_sparsity_pattern : 3 ms
[OGL LOG] sort_host_mtx : 1 ms
[OGL LOG] init_preconditioner : 0 ms
[OGL LOG] solve : 54 ms
noneompGKOBiCGStab:  Solving for p, Initial residual = 0.0555937, Final residual = 9.82293e-05, No Iterations 57
linear solve p 67934
time step continuity errors : sum local = 8.46047e-08, global = 2.76531e-20, cumulative = 6.30812e-21
[OGL LOG] init_host_sparsity_pattern : 4 ms
[OGL LOG] matrix not stored update host matrix
[OGL LOG] update_host_mtx : 2 ms
[OGL LOG] matrix is not yet sorted, sorting host matrix
[OGL LOG] sort_host_mtx_sparsity_pattern : 3 ms
[OGL LOG] sort_host_mtx : 1 ms
[OGL LOG] init_preconditioner : 0 ms
[OGL LOG] solve : 48 ms
noneompGKOBiCGStab:  Solving for p, Initial residual = 0.0374249, Final residual = 7.70444e-05, No Iterations 52
linear solve p 62410
time step continuity errors : sum local = 1.07033e-07, global = 3.69707e-20, cumulative = 4.32789e-20
ExecutionTime = 1.28 s  ClockTime = 1 s

Time = 0.005

Courant Number mean: 0.0265079 max: 0.186527
DILUPBiCGStab:  Solving for Ux, Initial residual = 0.035135, Final residual = 1.72471e-10, No Iterations 5
DILUPBiCGStab:  Solving for Uy, Initial residual = 0.0507636, Final residual = 1.02661e-10, No Iterations 5
DILUPBiCGStab:  Solving for Uz, Initial residual = 0.0906548, Final residual = 2.70776e-10, No Iterations 5
linear solve U 10446
[OGL LOG] init_host_sparsity_pattern : 4 ms
[OGL LOG] matrix not stored update host matrix
[OGL LOG] update_host_mtx : 2 ms
[OGL LOG] matrix is not yet sorted, sorting host matrix
[OGL LOG] sort_host_mtx_sparsity_pattern : 3 ms
[OGL LOG] sort_host_mtx : 1 ms
[OGL LOG] init_preconditioner : 0 ms
[OGL LOG] solve : 49 ms
noneompGKOBiCGStab:  Solving for p, Initial residual = 0.0352318, Final residual = 9.55125e-05, No Iterations 52
linear solve p 63274
time step continuity errors : sum local = 1.82509e-06, global = -5.22715e-21, cumulative = 3.80517e-20
[OGL LOG] init_host_sparsity_pattern : 4 ms
[OGL LOG] matrix not stored update host matrix
[OGL LOG] update_host_mtx : 2 ms
[OGL LOG] matrix is not yet sorted, sorting host matrix
[OGL LOG] sort_host_mtx_sparsity_pattern : 3 ms
[OGL LOG] sort_host_mtx : 1 ms
[OGL LOG] init_preconditioner : 0 ms
[OGL LOG] solve : 50 ms
noneompGKOBiCGStab:  Solving for p, Initial residual = 0.0248285, Final residual = 7.30846e-05, No Iterations 53
linear solve p 64425
time step continuity errors : sum local = 2.45354e-07, global = 1.41317e-20, cumulative = 5.21834e-20
ExecutionTime = 1.42 s  ClockTime = 1 s

Time = 0.006

Courant Number mean: 0.0289085 max: 0.193356
DILUPBiCGStab:  Solving for Ux, Initial residual = 0.0263502, Final residual = 7.58207e-11, No Iterations 5
DILUPBiCGStab:  Solving for Uy, Initial residual = 0.0374854, Final residual = 7.03509e-11, No Iterations 5
DILUPBiCGStab:  Solving for Uz, Initial residual = 0.0697662, Final residual = 1.89194e-10, No Iterations 5
linear solve U 10470
[OGL LOG] init_host_sparsity_pattern : 4 ms
[OGL LOG] matrix not stored update host matrix
[OGL LOG] update_host_mtx : 2 ms
[OGL LOG] matrix is not yet sorted, sorting host matrix
[OGL LOG] sort_host_mtx_sparsity_pattern : 3 ms
[OGL LOG] sort_host_mtx : 1 ms
[OGL LOG] init_preconditioner : 0 ms
[OGL LOG] solve : 48 ms
noneompGKOBiCGStab:  Solving for p, Initial residual = 0.0273827, Final residual = 7.44118e-05, No Iterations 51
linear solve p 61929
time step continuity errors : sum local = 6.98789e-08, global = 7.91302e-22, cumulative = 5.29747e-20
[OGL LOG] init_host_sparsity_pattern : 4 ms
[OGL LOG] matrix not stored update host matrix
[OGL LOG] update_host_mtx : 2 ms
[OGL LOG] matrix is not yet sorted, sorting host matrix
[OGL LOG] sort_host_mtx_sparsity_pattern : 3 ms
[OGL LOG] sort_host_mtx : 1 ms
[OGL LOG] init_preconditioner : 0 ms
[OGL LOG] solve : 44 ms
noneompGKOBiCGStab:  Solving for p, Initial residual = 0.0184345, Final residual = 7.44465e-05, No Iterations 47
linear solve p 57766
time step continuity errors : sum local = 7.96031e-08, global = 1.6239e-20, cumulative = 6.92137e-20
ExecutionTime = 1.56 s  ClockTime = 1 s

Time = 0.007

Courant Number mean: 0.0308448 max: 0.197912
DILUPBiCGStab:  Solving for Ux, Initial residual = 0.0203372, Final residual = 3.50835e-11, No Iterations 5
DILUPBiCGStab:  Solving for Uy, Initial residual = 0.0300061, Final residual = 5.19683e-11, No Iterations 5
DILUPBiCGStab:  Solving for Uz, Initial residual = 0.0565819, Final residual = 1.32438e-10, No Iterations 5
linear solve U 10456
[OGL LOG] init_host_sparsity_pattern : 4 ms
[OGL LOG] matrix not stored update host matrix
[OGL LOG] update_host_mtx : 2 ms
[OGL LOG] matrix is not yet sorted, sorting host matrix
[OGL LOG] sort_host_mtx_sparsity_pattern : 3 ms
[OGL LOG] sort_host_mtx : 1 ms
[OGL LOG] init_preconditioner : 0 ms
[OGL LOG] solve : 49 ms
noneompGKOBiCGStab:  Solving for p, Initial residual = 0.0186743, Final residual = 8.01324e-05, No Iterations 53
linear solve p 63380
time step continuity errors : sum local = 7.19648e-08, global = 3.68519e-20, cumulative = 1.06066e-19
[OGL LOG] init_host_sparsity_pattern : 4 ms
[OGL LOG] matrix not stored update host matrix
[OGL LOG] update_host_mtx : 2 ms
[OGL LOG] matrix is not yet sorted, sorting host matrix
[OGL LOG] sort_host_mtx_sparsity_pattern : 3 ms
[OGL LOG] sort_host_mtx : 1 ms
[OGL LOG] init_preconditioner : 0 ms
[OGL LOG] solve : 43 ms
noneompGKOBiCGStab:  Solving for p, Initial residual = 0.0126322, Final residual = 9.20905e-05, No Iterations 46
linear solve p 57749
time step continuity errors : sum local = 1.05599e-07, global = 5.16967e-21, cumulative = 1.11235e-19
ExecutionTime = 1.7 s  ClockTime = 1 s

Time = 0.008

Courant Number mean: 0.0324896 max: 0.20119
DILUPBiCGStab:  Solving for Ux, Initial residual = 0.0165062, Final residual = 1.96142e-11, No Iterations 5
DILUPBiCGStab:  Solving for Uy, Initial residual = 0.0245924, Final residual = 3.9549e-11, No Iterations 5
DILUPBiCGStab:  Solving for Uz, Initial residual = 0.0475398, Final residual = 9.58033e-11, No Iterations 5
linear solve U 10454
[OGL LOG] init_host_sparsity_pattern : 4 ms
[OGL LOG] matrix not stored update host matrix
[OGL LOG] update_host_mtx : 2 ms
[OGL LOG] matrix is not yet sorted, sorting host matrix
[OGL LOG] sort_host_mtx_sparsity_pattern : 3 ms
[OGL LOG] sort_host_mtx : 1 ms
[OGL LOG] init_preconditioner : 0 ms
[OGL LOG] solve : 48 ms
noneompGKOBiCGStab:  Solving for p, Initial residual = 0.014939, Final residual = 9.13931e-05, No Iterations 52
linear solve p 62783
time step continuity errors : sum local = 7.80573e-08, global = 2.12947e-21, cumulative = 1.13365e-19
[OGL LOG] init_host_sparsity_pattern : 4 ms
[OGL LOG] matrix not stored update host matrix
[OGL LOG] update_host_mtx : 2 ms
[OGL LOG] matrix is not yet sorted, sorting host matrix
[OGL LOG] sort_host_mtx_sparsity_pattern : 3 ms
[OGL LOG] sort_host_mtx : 1 ms
[OGL LOG] init_preconditioner : 0 ms
[OGL LOG] solve : 45 ms
noneompGKOBiCGStab:  Solving for p, Initial residual = 0.0101935, Final residual = 8.94322e-05, No Iterations 48
linear solve p 59606
time step continuity errors : sum local = 9.55807e-08, global = -1.49687e-20, cumulative = 9.83961e-20
ExecutionTime = 1.83 s  ClockTime = 1 s

Time = 0.009

Courant Number mean: 0.0338932 max: 0.203684
DILUPBiCGStab:  Solving for Ux, Initial residual = 0.0137849, Final residual = 1.28036e-11, No Iterations 5
DILUPBiCGStab:  Solving for Uy, Initial residual = 0.0206549, Final residual = 3.02648e-11, No Iterations 5
DILUPBiCGStab:  Solving for Uz, Initial residual = 0.0406744, Final residual = 7.38055e-11, No Iterations 5
linear solve U 10495
[OGL LOG] init_host_sparsity_pattern : 4 ms
[OGL LOG] matrix not stored update host matrix
[OGL LOG] update_host_mtx : 2 ms
[OGL LOG] matrix is not yet sorted, sorting host matrix
[OGL LOG] sort_host_mtx_sparsity_pattern : 3 ms
[OGL LOG] sort_host_mtx : 1 ms
[OGL LOG] init_preconditioner : 0 ms
[OGL LOG] solve : 47 ms
noneompGKOBiCGStab:  Solving for p, Initial residual = 0.0125541, Final residual = 9.3909e-05, No Iterations 50
linear solve p 61263
time step continuity errors : sum local = 1.11338e-07, global = 1.30171e-20, cumulative = 1.11413e-19
[OGL LOG] init_host_sparsity_pattern : 4 ms
[OGL LOG] matrix not stored update host matrix
[OGL LOG] update_host_mtx : 2 ms
[OGL LOG] matrix is not yet sorted, sorting host matrix
[OGL LOG] sort_host_mtx_sparsity_pattern : 3 ms
[OGL LOG] sort_host_mtx : 1 ms
[OGL LOG] init_preconditioner : 0 ms
[OGL LOG] solve : 44 ms
noneompGKOBiCGStab:  Solving for p, Initial residual = 0.00866983, Final residual = 9.88297e-05, No Iterations 46
linear solve p 58351
time step continuity errors : sum local = 9.89398e-08, global = -1.95806e-20, cumulative = 9.18326e-20
ExecutionTime = 1.97 s  ClockTime = 2 s

Time = 0.01

Courant Number mean: 0.0351035 max: 0.205657
DILUPBiCGStab:  Solving for Ux, Initial residual = 0.0116977, Final residual = 9.29719e-12, No Iterations 5
DILUPBiCGStab:  Solving for Uy, Initial residual = 0.0177155, Final residual = 2.33811e-11, No Iterations 5
DILUPBiCGStab:  Solving for Uz, Initial residual = 0.0353243, Final residual = 5.76582e-11, No Iterations 5
linear solve U 10610
[OGL LOG] init_host_sparsity_pattern : 4 ms
[OGL LOG] matrix not stored update host matrix
[OGL LOG] update_host_mtx : 2 ms
[OGL LOG] matrix is not yet sorted, sorting host matrix
[OGL LOG] sort_host_mtx_sparsity_pattern : 3 ms
[OGL LOG] sort_host_mtx : 1 ms
[OGL LOG] init_preconditioner : 0 ms
[OGL LOG] solve : 47 ms
noneompGKOBiCGStab:  Solving for p, Initial residual = 0.0106061, Final residual = 8.75787e-05, No Iterations 50
linear solve p 61112
time step continuity errors : sum local = 9.29132e-08, global = -2.14001e-20, cumulative = 7.04325e-20
[OGL LOG] init_host_sparsity_pattern : 4 ms
[OGL LOG] matrix not stored update host matrix
[OGL LOG] update_host_mtx : 2 ms
[OGL LOG] matrix is not yet sorted, sorting host matrix
[OGL LOG] sort_host_mtx_sparsity_pattern : 3 ms
[OGL LOG] sort_host_mtx : 1 ms
[OGL LOG] init_preconditioner : 0 ms
[OGL LOG] solve : 46 ms
noneompGKOBiCGStab:  Solving for p, Initial residual = 0.00734326, Final residual = 7.88926e-05, No Iterations 49
linear solve p 59664
time step continuity errors : sum local = 6.93155e-08, global = -1.36675e-20, cumulative = 5.6765e-20
ExecutionTime = 2.11 s  ClockTime = 2 s

End

