/*---------------------------------------------------------------------------*\
  =========                 |
  \\      /  F ield         | OpenFOAM: The Open Source CFD Toolbox
   \\    /   O peration     | Website:  https://openfoam.org
    \\  /    A nd           | Version:  8
     \\/     M anipulation  |
\*---------------------------------------------------------------------------*/
Build  : 8-40a5a48f630f
Exec   : icoFoam
Date   : Jul 28 2021
Time   : 13:24:17
Host   : "uc2n446.localdomain"
PID    : 418436
I/O    : uncollated
Case   : /pfs/data5/home/kit/scc/nq7776/code/OBR/lidDrivenCavity3D/Variation_mesh/70/Variation_matrix_solver/BiCGStab_NoPrecond_OMP/base
nProcs : 1
sigFpe : Enabling floating point exception trapping (FOAM_SIGFPE).
fileModificationChecking : Monitoring run-time modified files using timeStampMaster (fileModificationSkew 10)
allowSystemOperations : Allowing user-supplied system call operations

// * * * * * * * * * * * * * * * * * * * * * * * * * * * * * * * * * * * * * //
Create time

Create mesh for time = 0

Reading transportProperties

Reading field p

Reading field U

Reading/calculating face flux field phi


Starting time loop

Time = 0.001

Courant Number mean: 0 max: 0
nonePBiCGStab:  Solving for Ux, Initial residual = 1, Final residual = 0.0584718, No Iterations 5
nonePBiCGStab:  Solving for Uy, Initial residual = 0, Final residual = 0, No Iterations 0
nonePBiCGStab:  Solving for Uz, Initial residual = 0, Final residual = 0, No Iterations 0
linear solve U 86
[OGL LOG] init_host_sparsity_pattern : 97 ms
[OGL LOG] matrix not stored update host matrix
[OGL LOG] update_host_mtx : 50 ms
[OGL LOG] matrix is not yet sorted, compute sorting idxs
[OGL LOG] compute_sort : 2945 ms
[OGL LOG] matrix is not yet sorted, sorting host matrix
[OGL LOG] sort_host_mtx_sparsity_pattern : 70 ms
[OGL LOG] sort_host_mtx : 41 ms
[OGL LOG] init_preconditioner : 0 ms
[OGL LOG] solve : 3149 ms
noneompGKOBiCGStab:  Solving for p, Initial residual = 1, Final residual = 9.30018e-05, No Iterations 461
linear solve p 6430
time step continuity errors : sum local = 3.82734e-07, global = -7.41609e-21, cumulative = -7.41609e-21
[OGL LOG] init_host_sparsity_pattern : 94 ms
[OGL LOG] matrix not stored update host matrix
[OGL LOG] update_host_mtx : 50 ms
[OGL LOG] matrix is not yet sorted, sorting host matrix
[OGL LOG] sort_host_mtx_sparsity_pattern : 72 ms
[OGL LOG] sort_host_mtx : 35 ms
[OGL LOG] init_preconditioner : 0 ms
[OGL LOG] solve : 2990 ms
noneompGKOBiCGStab:  Solving for p, Initial residual = 0.682644, Final residual = 8.54763e-05, No Iterations 444
linear solve p 3291
time step continuity errors : sum local = 1.17898e-06, global = 3.95478e-21, cumulative = -3.46131e-21
ExecutionTime = 127.9 s  ClockTime = 12 s

Time = 0.002

Courant Number mean: 0.0344613 max: 0.514719
nonePBiCGStab:  Solving for Ux, Initial residual = 0.149359, Final residual = 0.0244439, No Iterations 5
nonePBiCGStab:  Solving for Uy, Initial residual = 0.378115, Final residual = 0.0571035, No Iterations 5
nonePBiCGStab:  Solving for Uz, Initial residual = 0.967432, Final residual = 0.188034, No Iterations 5
linear solve U 169
[OGL LOG] init_host_sparsity_pattern : 92 ms
[OGL LOG] matrix not stored update host matrix
[OGL LOG] update_host_mtx : 48 ms
[OGL LOG] matrix is not yet sorted, sorting host matrix
[OGL LOG] sort_host_mtx_sparsity_pattern : 74 ms
[OGL LOG] sort_host_mtx : 34 ms
[OGL LOG] init_preconditioner : 0 ms
[OGL LOG] solve : 3022 ms
noneompGKOBiCGStab:  Solving for p, Initial residual = 0.684075, Final residual = 8.84055e-05, No Iterations 421
linear solve p 3330
time step continuity errors : sum local = 1.28579e-07, global = 4.46578e-21, cumulative = 1.00446e-21
[OGL LOG] init_host_sparsity_pattern : 98 ms
[OGL LOG] matrix not stored update host matrix
[OGL LOG] update_host_mtx : 55 ms
[OGL LOG] matrix is not yet sorted, sorting host matrix
[OGL LOG] sort_host_mtx_sparsity_pattern : 76 ms
[OGL LOG] sort_host_mtx : 34 ms
[OGL LOG] init_preconditioner : 0 ms
[OGL LOG] solve : 2728 ms
noneompGKOBiCGStab:  Solving for p, Initial residual = 0.602493, Final residual = 9.3028e-05, No Iterations 418
linear solve p 3051
time step continuity errors : sum local = 4.68055e-07, global = -2.46567e-21, cumulative = -1.46121e-21
ExecutionTime = 244.05 s  ClockTime = 19 s

Time = 0.003

Courant Number mean: 0.0532264 max: 0.605907
nonePBiCGStab:  Solving for Ux, Initial residual = 0.0556761, Final residual = 0.00745776, No Iterations 5
nonePBiCGStab:  Solving for Uy, Initial residual = 0.137057, Final residual = 0.0238544, No Iterations 5
nonePBiCGStab:  Solving for Uz, Initial residual = 0.488655, Final residual = 0.0984554, No Iterations 5
linear solve U 170
[OGL LOG] init_host_sparsity_pattern : 94 ms
[OGL LOG] matrix not stored update host matrix
[OGL LOG] update_host_mtx : 50 ms
[OGL LOG] matrix is not yet sorted, sorting host matrix
[OGL LOG] sort_host_mtx_sparsity_pattern : 72 ms
[OGL LOG] sort_host_mtx : 34 ms
[OGL LOG] init_preconditioner : 0 ms
[OGL LOG] solve : 2214 ms
noneompGKOBiCGStab:  Solving for p, Initial residual = 0.614898, Final residual = 6.81882e-05, No Iterations 350
linear solve p 2515
time step continuity errors : sum local = 1.5635e-06, global = 5.53048e-22, cumulative = -9.08159e-22
[OGL LOG] init_host_sparsity_pattern : 90 ms
[OGL LOG] matrix not stored update host matrix
[OGL LOG] update_host_mtx : 47 ms
[OGL LOG] matrix is not yet sorted, sorting host matrix
[OGL LOG] sort_host_mtx_sparsity_pattern : 70 ms
[OGL LOG] sort_host_mtx : 34 ms
[OGL LOG] init_preconditioner : 0 ms
[OGL LOG] solve : 2343 ms
noneompGKOBiCGStab:  Solving for p, Initial residual = 0.54774, Final residual = 6.50216e-05, No Iterations 367
linear solve p 2635
time step continuity errors : sum local = 6.22244e-08, global = 2.22418e-22, cumulative = -6.85741e-22
ExecutionTime = 336.31 s  ClockTime = 24 s

Time = 0.004

Courant Number mean: 0.0638086 max: 0.623644
nonePBiCGStab:  Solving for Ux, Initial residual = 0.033983, Final residual = 0.0040825, No Iterations 5
nonePBiCGStab:  Solving for Uy, Initial residual = 0.0890808, Final residual = 0.0118136, No Iterations 5
nonePBiCGStab:  Solving for Uz, Initial residual = 0.306486, Final residual = 0.0595524, No Iterations 5
linear solve U 175
[OGL LOG] init_host_sparsity_pattern : 92 ms
[OGL LOG] matrix not stored update host matrix
[OGL LOG] update_host_mtx : 49 ms
[OGL LOG] matrix is not yet sorted, sorting host matrix
[OGL LOG] sort_host_mtx_sparsity_pattern : 72 ms
[OGL LOG] sort_host_mtx : 34 ms
[OGL LOG] init_preconditioner : 0 ms
[OGL LOG] solve : 3050 ms
noneompGKOBiCGStab:  Solving for p, Initial residual = 0.432282, Final residual = 6.47435e-05, No Iterations 424
linear solve p 3346
time step continuity errors : sum local = 1.21961e-07, global = -1.19197e-20, cumulative = -1.26055e-20
[OGL LOG] init_host_sparsity_pattern : 97 ms
[OGL LOG] matrix not stored update host matrix
[OGL LOG] update_host_mtx : 50 ms
[OGL LOG] matrix is not yet sorted, sorting host matrix
[OGL LOG] sort_host_mtx_sparsity_pattern : 71 ms
[OGL LOG] sort_host_mtx : 34 ms
[OGL LOG] init_preconditioner : 0 ms
[OGL LOG] solve : 2877 ms
noneompGKOBiCGStab:  Solving for p, Initial residual = 0.361595, Final residual = 9.84212e-05, No Iterations 397
linear solve p 3174
time step continuity errors : sum local = 5.41071e-07, global = 1.27772e-20, cumulative = 1.71755e-22
ExecutionTime = 455.78 s  ClockTime = 31 s

Time = 0.005

Courant Number mean: 0.0724202 max: 0.63466
nonePBiCGStab:  Solving for Ux, Initial residual = 0.0240989, Final residual = 0.00257829, No Iterations 5
nonePBiCGStab:  Solving for Uy, Initial residual = 0.0583713, Final residual = 0.00702307, No Iterations 5
nonePBiCGStab:  Solving for Uz, Initial residual = 0.179002, Final residual = 0.0374381, No Iterations 5
linear solve U 174
[OGL LOG] init_host_sparsity_pattern : 90 ms
[OGL LOG] matrix not stored update host matrix
[OGL LOG] update_host_mtx : 50 ms
[OGL LOG] matrix is not yet sorted, sorting host matrix
[OGL LOG] sort_host_mtx_sparsity_pattern : 70 ms
[OGL LOG] sort_host_mtx : 34 ms
[OGL LOG] init_preconditioner : 0 ms
[OGL LOG] solve : 2427 ms
noneompGKOBiCGStab:  Solving for p, Initial residual = 0.383674, Final residual = 9.81624e-05, No Iterations 335
linear solve p 2713
time step continuity errors : sum local = 4.48664e-07, global = 1.04532e-20, cumulative = 1.06249e-20
[OGL LOG] init_host_sparsity_pattern : 90 ms
[OGL LOG] matrix not stored update host matrix
[OGL LOG] update_host_mtx : 43 ms
[OGL LOG] matrix is not yet sorted, sorting host matrix
[OGL LOG] sort_host_mtx_sparsity_pattern : 70 ms
[OGL LOG] sort_host_mtx : 35 ms
[OGL LOG] init_preconditioner : 0 ms
[OGL LOG] solve : 2551 ms
noneompGKOBiCGStab:  Solving for p, Initial residual = 0.328985, Final residual = 9.42753e-05, No Iterations 362
linear solve p 2833
time step continuity errors : sum local = 7.3049e-08, global = 4.96219e-21, cumulative = 1.55871e-20
ExecutionTime = 556.32 s  ClockTime = 37 s

Time = 0.006

Courant Number mean: 0.0791674 max: 0.641386
nonePBiCGStab:  Solving for Ux, Initial residual = 0.0183157, Final residual = 0.00165741, No Iterations 5
nonePBiCGStab:  Solving for Uy, Initial residual = 0.043254, Final residual = 0.00365586, No Iterations 5
nonePBiCGStab:  Solving for Uz, Initial residual = 0.145846, Final residual = 0.029384, No Iterations 5
linear solve U 171
[OGL LOG] init_host_sparsity_pattern : 90 ms
[OGL LOG] matrix not stored update host matrix
[OGL LOG] update_host_mtx : 47 ms
[OGL LOG] matrix is not yet sorted, sorting host matrix
[OGL LOG] sort_host_mtx_sparsity_pattern : 70 ms
[OGL LOG] sort_host_mtx : 35 ms
[OGL LOG] init_preconditioner : 0 ms
[OGL LOG] solve : 3025 ms
noneompGKOBiCGStab:  Solving for p, Initial residual = 0.278038, Final residual = 2.67394e-05, No Iterations 418
linear solve p 3313
time step continuity errors : sum local = 1.19185e-06, global = 1.7247e-21, cumulative = 1.73118e-20
[OGL LOG] init_host_sparsity_pattern : 90 ms
[OGL LOG] matrix not stored update host matrix
[OGL LOG] update_host_mtx : 43 ms
[OGL LOG] matrix is not yet sorted, sorting host matrix
[OGL LOG] sort_host_mtx_sparsity_pattern : 70 ms
[OGL LOG] sort_host_mtx : 35 ms
[OGL LOG] init_preconditioner : 0 ms
[OGL LOG] solve : 2937 ms
noneompGKOBiCGStab:  Solving for p, Initial residual = 0.23437, Final residual = 9.78907e-05, No Iterations 406
linear solve p 3216
time step continuity errors : sum local = 6.50031e-08, global = -5.36054e-21, cumulative = 1.19513e-20
ExecutionTime = 676.48 s  ClockTime = 44 s

Time = 0.007

Courant Number mean: 0.0848609 max: 0.646017
nonePBiCGStab:  Solving for Ux, Initial residual = 0.0143922, Final residual = 0.00123688, No Iterations 5
nonePBiCGStab:  Solving for Uy, Initial residual = 0.0345636, Final residual = 0.0030851, No Iterations 5
nonePBiCGStab:  Solving for Uz, Initial residual = 0.134124, Final residual = 0.0269447, No Iterations 5
linear solve U 171
[OGL LOG] init_host_sparsity_pattern : 90 ms
[OGL LOG] matrix not stored update host matrix
[OGL LOG] update_host_mtx : 44 ms
[OGL LOG] matrix is not yet sorted, sorting host matrix
[OGL LOG] sort_host_mtx_sparsity_pattern : 70 ms
[OGL LOG] sort_host_mtx : 34 ms
[OGL LOG] init_preconditioner : 0 ms
[OGL LOG] solve : 2418 ms
noneompGKOBiCGStab:  Solving for p, Initial residual = 0.240868, Final residual = 9.96016e-05, No Iterations 394
linear solve p 2698
time step continuity errors : sum local = 4.87509e-08, global = -7.27385e-21, cumulative = 4.67744e-21
[OGL LOG] init_host_sparsity_pattern : 90 ms
[OGL LOG] matrix not stored update host matrix
[OGL LOG] update_host_mtx : 50 ms
[OGL LOG] matrix is not yet sorted, sorting host matrix
[OGL LOG] sort_host_mtx_sparsity_pattern : 72 ms
[OGL LOG] sort_host_mtx : 35 ms
[OGL LOG] init_preconditioner : 0 ms
[OGL LOG] solve : 2943 ms
noneompGKOBiCGStab:  Solving for p, Initial residual = 0.204002, Final residual = 8.37008e-05, No Iterations 406
linear solve p 3233
time step continuity errors : sum local = 1.08952e-06, global = -2.33265e-20, cumulative = -1.8649e-20
ExecutionTime = 784.67 s  ClockTime = 50 s

Time = 0.008

Courant Number mean: 0.0896277 max: 0.6496
nonePBiCGStab:  Solving for Ux, Initial residual = 0.0119761, Final residual = 0.00100918, No Iterations 5
nonePBiCGStab:  Solving for Uy, Initial residual = 0.0273995, Final residual = 0.00218291, No Iterations 5
nonePBiCGStab:  Solving for Uz, Initial residual = 0.100124, Final residual = 0.0190008, No Iterations 5
linear solve U 172
[OGL LOG] init_host_sparsity_pattern : 93 ms
[OGL LOG] matrix not stored update host matrix
[OGL LOG] update_host_mtx : 51 ms
[OGL LOG] matrix is not yet sorted, sorting host matrix
[OGL LOG] sort_host_mtx_sparsity_pattern : 70 ms
[OGL LOG] sort_host_mtx : 34 ms
[OGL LOG] init_preconditioner : 0 ms
[OGL LOG] solve : 2737 ms
noneompGKOBiCGStab:  Solving for p, Initial residual = 0.196511, Final residual = 9.62214e-05, No Iterations 384
linear solve p 3027
time step continuity errors : sum local = 5.33554e-08, global = -6.2162e-21, cumulative = -2.48652e-20
[OGL LOG] init_host_sparsity_pattern : 90 ms
[OGL LOG] matrix not stored update host matrix
[OGL LOG] update_host_mtx : 43 ms
[OGL LOG] matrix is not yet sorted, sorting host matrix
[OGL LOG] sort_host_mtx_sparsity_pattern : 69 ms
[OGL LOG] sort_host_mtx : 34 ms
[OGL LOG] init_preconditioner : 0 ms
[OGL LOG] solve : 2781 ms
noneompGKOBiCGStab:  Solving for p, Initial residual = 0.16511, Final residual = 9.79335e-05, No Iterations 385
linear solve p 3061
time step continuity errors : sum local = 9.84915e-08, global = 7.50103e-21, cumulative = -1.73642e-20
ExecutionTime = 895.98 s  ClockTime = 57 s

Time = 0.009

Courant Number mean: 0.093735 max: 0.652255
nonePBiCGStab:  Solving for Ux, Initial residual = 0.00973545, Final residual = 0.000677601, No Iterations 5
nonePBiCGStab:  Solving for Uy, Initial residual = 0.0234337, Final residual = 0.00139308, No Iterations 5
nonePBiCGStab:  Solving for Uz, Initial residual = 0.0741673, Final residual = 0.0130185, No Iterations 5
linear solve U 174
[OGL LOG] init_host_sparsity_pattern : 94 ms
[OGL LOG] matrix not stored update host matrix
[OGL LOG] update_host_mtx : 50 ms
[OGL LOG] matrix is not yet sorted, sorting host matrix
[OGL LOG] sort_host_mtx_sparsity_pattern : 70 ms
[OGL LOG] sort_host_mtx : 34 ms
[OGL LOG] init_preconditioner : 0 ms
[OGL LOG] solve : 2734 ms
noneompGKOBiCGStab:  Solving for p, Initial residual = 0.165676, Final residual = 9.98549e-05, No Iterations 379
linear solve p 3024
time step continuity errors : sum local = 4.69604e-08, global = 7.20177e-22, cumulative = -1.6644e-20
[OGL LOG] init_host_sparsity_pattern : 90 ms
[OGL LOG] matrix not stored update host matrix
[OGL LOG] update_host_mtx : 44 ms
[OGL LOG] matrix is not yet sorted, sorting host matrix
[OGL LOG] sort_host_mtx_sparsity_pattern : 70 ms
[OGL LOG] sort_host_mtx : 34 ms
[OGL LOG] init_preconditioner : 0 ms
[OGL LOG] solve : 2529 ms
noneompGKOBiCGStab:  Solving for p, Initial residual = 0.139224, Final residual = 9.99228e-05, No Iterations 350
linear solve p 2811
time step continuity errors : sum local = 5.49249e-08, global = 6.34432e-21, cumulative = -1.02997e-20
ExecutionTime = 1002.21 s  ClockTime = 63 s

Time = 0.01

Courant Number mean: 0.0972976 max: 0.654387
nonePBiCGStab:  Solving for Ux, Initial residual = 0.00839798, Final residual = 0.000481964, No Iterations 5
nonePBiCGStab:  Solving for Uy, Initial residual = 0.0193138, Final residual = 0.000882407, No Iterations 5
nonePBiCGStab:  Solving for Uz, Initial residual = 0.0581942, Final residual = 0.00767194, No Iterations 5
linear solve U 176
[OGL LOG] init_host_sparsity_pattern : 90 ms
[OGL LOG] matrix not stored update host matrix
[OGL LOG] update_host_mtx : 51 ms
[OGL LOG] matrix is not yet sorted, sorting host matrix
[OGL LOG] sort_host_mtx_sparsity_pattern : 69 ms
[OGL LOG] sort_host_mtx : 34 ms
[OGL LOG] init_preconditioner : 0 ms
[OGL LOG] solve : 2739 ms
noneompGKOBiCGStab:  Solving for p, Initial residual = 0.129205, Final residual = 6.31505e-05, No Iterations 379
linear solve p 3026
time step continuity errors : sum local = 2.79848e-08, global = 1.38936e-20, cumulative = 3.59386e-21
[OGL LOG] init_host_sparsity_pattern : 90 ms
[OGL LOG] matrix not stored update host matrix
[OGL LOG] update_host_mtx : 50 ms
[OGL LOG] matrix is not yet sorted, sorting host matrix
[OGL LOG] sort_host_mtx_sparsity_pattern : 70 ms
[OGL LOG] sort_host_mtx : 35 ms
[OGL LOG] init_preconditioner : 0 ms
[OGL LOG] solve : 2628 ms
noneompGKOBiCGStab:  Solving for p, Initial residual = 0.10831, Final residual = 9.82513e-05, No Iterations 363
linear solve p 2917
time step continuity errors : sum local = 1.89758e-07, global = 7.84009e-21, cumulative = 1.1434e-20
ExecutionTime = 1110.53 s  ClockTime = 69 s

End

