/*---------------------------------------------------------------------------*\
  =========                 |
  \\      /  F ield         | OpenFOAM: The Open Source CFD Toolbox
   \\    /   O peration     | Website:  https://openfoam.org
    \\  /    A nd           | Version:  8
     \\/     M anipulation  |
\*---------------------------------------------------------------------------*/
Build  : 8-ef60d22ea792
Exec   : icoFoam
Date   : Jul 29 2021
Time   : 04:41:05
Host   : "nla-gpu2.ianm.kit.edu"
PID    : 1882167
I/O    : uncollated
Case   : /home/greole/code/OBR/lidDrivenCavity3D/Variation_mesh/95/Variation_matrix_solver/CG_DIC_Serial/base
nProcs : 1
sigFpe : Enabling floating point exception trapping (FOAM_SIGFPE).
fileModificationChecking : Monitoring run-time modified files using timeStampMaster (fileModificationSkew 10)
allowSystemOperations : Allowing user-supplied system call operations

// * * * * * * * * * * * * * * * * * * * * * * * * * * * * * * * * * * * * * //
Create time

Create mesh for time = 0

Reading transportProperties

Reading field p

Reading field U

Reading/calculating face flux field phi


Starting time loop

Time = 0.001

Courant Number mean: 0 max: 0
DILUPBiCGStab:  Solving for Ux, Initial residual = 1, Final residual = 0.00597808, No Iterations 5
DILUPBiCGStab:  Solving for Uy:  solution singularity
DILUPBiCGStab:  Solving for Uz:  solution singularity
linear solve U 355077
DICPCG:  Solving for p, Initial residual = 1, Final residual = 9.2373e-05, No Iterations 228
linear solve p 4184464
time step continuity errors : sum local = 5.33348e-08, global = 1.29877e-20, cumulative = 1.29877e-20
DICPCG:  Solving for p, Initial residual = 0.770651, Final residual = 9.79508e-05, No Iterations 227
linear solve p 4227572
time step continuity errors : sum local = 7.18347e-08, global = -2.8565e-21, cumulative = 1.01312e-20
ExecutionTime = 12.91 s  ClockTime = 13 s

Time = 0.002

Courant Number mean: 0.0534417 max: 0.757475
DILUPBiCGStab:  Solving for Ux, Initial residual = 0.140129, Final residual = 0.00255033, No Iterations 5
DILUPBiCGStab:  Solving for Uy, Initial residual = 0.419605, Final residual = 0.0069595, No Iterations 5
DILUPBiCGStab:  Solving for Uz, Initial residual = 0.989714, Final residual = 0.0177991, No Iterations 5
linear solve U 689628
DICPCG:  Solving for p, Initial residual = 0.783563, Final residual = 9.02349e-05, No Iterations 235
linear solve p 4340619
time step continuity errors : sum local = 8.93675e-08, global = -2.77311e-21, cumulative = 7.35806e-21
DICPCG:  Solving for p, Initial residual = 0.722921, Final residual = 9.83404e-05, No Iterations 234
linear solve p 4353998
time step continuity errors : sum local = 9.94008e-08, global = -3.61204e-21, cumulative = 3.74602e-21
ExecutionTime = 22.67 s  ClockTime = 23 s

Time = 0.003

Courant Number mean: 0.0810138 max: 0.886808
DILUPBiCGStab:  Solving for Ux, Initial residual = 0.0625967, Final residual = 0.000877132, No Iterations 5
DILUPBiCGStab:  Solving for Uy, Initial residual = 0.202703, Final residual = 0.00232236, No Iterations 5
DILUPBiCGStab:  Solving for Uz, Initial residual = 0.778895, Final residual = 0.0126443, No Iterations 5
linear solve U 689279
DICPCG:  Solving for p, Initial residual = 0.808935, Final residual = 9.29488e-05, No Iterations 130
linear solve p 2422050
time step continuity errors : sum local = 8.56252e-08, global = 2.18855e-21, cumulative = 5.93457e-21
DICPCG:  Solving for p, Initial residual = 0.776031, Final residual = 9.23721e-05, No Iterations 129
linear solve p 2391564
time step continuity errors : sum local = 8.07623e-08, global = 4.48814e-21, cumulative = 1.04227e-20
ExecutionTime = 28.56 s  ClockTime = 29 s

Time = 0.004

Courant Number mean: 0.0936152 max: 0.877105
DILUPBiCGStab:  Solving for Ux, Initial residual = 0.0356772, Final residual = 0.000617128, No Iterations 5
DILUPBiCGStab:  Solving for Uy, Initial residual = 0.148228, Final residual = 0.00224221, No Iterations 5
DILUPBiCGStab:  Solving for Uz, Initial residual = 0.579482, Final residual = 0.00801234, No Iterations 5
linear solve U 694921
DICPCG:  Solving for p, Initial residual = 0.704949, Final residual = 8.67252e-05, No Iterations 129
linear solve p 2400726
time step continuity errors : sum local = 7.11707e-08, global = -7.47383e-21, cumulative = 2.94887e-21
DICPCG:  Solving for p, Initial residual = 0.6392, Final residual = 9.32282e-05, No Iterations 128
linear solve p 2369470
time step continuity errors : sum local = 7.60569e-08, global = 6.5615e-21, cumulative = 9.51038e-21
ExecutionTime = 34.4 s  ClockTime = 35 s

Time = 0.005

Courant Number mean: 0.105259 max: 0.889661
DILUPBiCGStab:  Solving for Ux, Initial residual = 0.0274725, Final residual = 0.000432843, No Iterations 5
DILUPBiCGStab:  Solving for Uy, Initial residual = 0.0811905, Final residual = 0.00141279, No Iterations 5
DILUPBiCGStab:  Solving for Uz, Initial residual = 0.48499, Final residual = 0.00625982, No Iterations 5
linear solve U 694318
DICPCG:  Solving for p, Initial residual = 0.699437, Final residual = 9.09988e-05, No Iterations 113
linear solve p 2104199
time step continuity errors : sum local = 6.77111e-08, global = -3.25299e-21, cumulative = 6.25739e-21
DICPCG:  Solving for p, Initial residual = 0.648417, Final residual = 8.94335e-05, No Iterations 112
linear solve p 2093066
time step continuity errors : sum local = 5.9937e-08, global = -4.51041e-21, cumulative = 1.74697e-21
ExecutionTime = 39.68 s  ClockTime = 40 s

Time = 0.006

Courant Number mean: 0.113391 max: 0.895053
DILUPBiCGStab:  Solving for Ux, Initial residual = 0.0177911, Final residual = 0.000283885, No Iterations 5
DILUPBiCGStab:  Solving for Uy, Initial residual = 0.0672191, Final residual = 0.00104617, No Iterations 5
DILUPBiCGStab:  Solving for Uz, Initial residual = 0.349121, Final residual = 0.00462323, No Iterations 5
linear solve U 690672
DICPCG:  Solving for p, Initial residual = 0.582081, Final residual = 9.90774e-05, No Iterations 112
linear solve p 2110377
time step continuity errors : sum local = 6.75175e-08, global = 1.48842e-21, cumulative = 3.23539e-21
DICPCG:  Solving for p, Initial residual = 0.523365, Final residual = 9.62224e-05, No Iterations 111
linear solve p 2049388
time step continuity errors : sum local = 5.9476e-08, global = -9.51565e-21, cumulative = -6.28026e-21
ExecutionTime = 44.93 s  ClockTime = 45 s

Time = 0.007

Courant Number mean: 0.120594 max: 0.898288
DILUPBiCGStab:  Solving for Ux, Initial residual = 0.0152659, Final residual = 0.000219523, No Iterations 5
DILUPBiCGStab:  Solving for Uy, Initial residual = 0.043766, Final residual = 0.000706235, No Iterations 5
DILUPBiCGStab:  Solving for Uz, Initial residual = 0.267571, Final residual = 0.00366694, No Iterations 5
linear solve U 697121
DICPCG:  Solving for p, Initial residual = 0.56235, Final residual = 9.19598e-05, No Iterations 232
linear solve p 4344195
time step continuity errors : sum local = 4.5613e-08, global = 6.41702e-21, cumulative = 1.36751e-22
DICPCG:  Solving for p, Initial residual = 0.50485, Final residual = 8.12933e-05, No Iterations 232
linear solve p 4277179
time step continuity errors : sum local = 4.0155e-08, global = 2.74681e-22, cumulative = 4.11432e-22
ExecutionTime = 54.62 s  ClockTime = 55 s

Time = 0.008

Courant Number mean: 0.126418 max: 0.902038
DILUPBiCGStab:  Solving for Ux, Initial residual = 0.0110695, Final residual = 0.000149406, No Iterations 5
DILUPBiCGStab:  Solving for Uy, Initial residual = 0.037532, Final residual = 0.000548072, No Iterations 5
DILUPBiCGStab:  Solving for Uz, Initial residual = 0.199573, Final residual = 0.0026594, No Iterations 5
linear solve U 687608
DICPCG:  Solving for p, Initial residual = 0.459343, Final residual = 9.81736e-05, No Iterations 230
linear solve p 4226388
time step continuity errors : sum local = 4.6927e-08, global = 1.28754e-21, cumulative = 1.69898e-21
DICPCG:  Solving for p, Initial residual = 0.406996, Final residual = 9.75591e-05, No Iterations 229
linear solve p 4256299
time step continuity errors : sum local = 4.65436e-08, global = -8.16233e-21, cumulative = -6.46335e-21
ExecutionTime = 64.16 s  ClockTime = 65 s

Time = 0.009

Courant Number mean: 0.131553 max: 0.903722
DILUPBiCGStab:  Solving for Ux, Initial residual = 0.00965686, Final residual = 0.000116502, No Iterations 5
DILUPBiCGStab:  Solving for Uy, Initial residual = 0.027354, Final residual = 0.000335386, No Iterations 5
DILUPBiCGStab:  Solving for Uz, Initial residual = 0.148267, Final residual = 0.00214065, No Iterations 5
linear solve U 695661
DICPCG:  Solving for p, Initial residual = 0.428267, Final residual = 9.95942e-05, No Iterations 210
linear solve p 3891511
time step continuity errors : sum local = 4.18755e-08, global = -2.21134e-20, cumulative = -2.85768e-20
DICPCG:  Solving for p, Initial residual = 0.376034, Final residual = 9.96264e-05, No Iterations 203
linear solve p 3805758
time step continuity errors : sum local = 4.18845e-08, global = -1.96286e-20, cumulative = -4.82054e-20
ExecutionTime = 72.92 s  ClockTime = 74 s

Time = 0.01

Courant Number mean: 0.135966 max: 0.906069
DILUPBiCGStab:  Solving for Ux, Initial residual = 0.00754302, Final residual = 8.35437e-05, No Iterations 5
DILUPBiCGStab:  Solving for Uy, Initial residual = 0.0238229, Final residual = 0.000280335, No Iterations 5
DILUPBiCGStab:  Solving for Uz, Initial residual = 0.115668, Final residual = 0.00171536, No Iterations 5
linear solve U 683493
DICPCG:  Solving for p, Initial residual = 0.351199, Final residual = 9.44121e-05, No Iterations 109
linear solve p 2026504
time step continuity errors : sum local = 4.23929e-08, global = -3.91573e-21, cumulative = -5.21211e-20
DICPCG:  Solving for p, Initial residual = 0.307749, Final residual = 9.48794e-05, No Iterations 108
linear solve p 2034772
time step continuity errors : sum local = 4.01059e-08, global = 1.1853e-20, cumulative = -4.02681e-20
ExecutionTime = 78.07 s  ClockTime = 79 s

End

