/*---------------------------------------------------------------------------*\
  =========                 |
  \\      /  F ield         | OpenFOAM: The Open Source CFD Toolbox
   \\    /   O peration     | Website:  https://openfoam.org
    \\  /    A nd           | Version:  8
     \\/     M anipulation  |
\*---------------------------------------------------------------------------*/
Build  : 8-ef60d22ea792
Exec   : icoFoam
Date   : Jul 29 2021
Time   : 04:07:15
Host   : "nla-gpu2.ianm.kit.edu"
PID    : 1866960
I/O    : uncollated
Case   : /home/greole/code/OBR/lidDrivenCavity3D/Variation_mesh/85/Variation_matrix_solver/BiCGStab_NoPrecond_Serial/base
nProcs : 1
sigFpe : Enabling floating point exception trapping (FOAM_SIGFPE).
fileModificationChecking : Monitoring run-time modified files using timeStampMaster (fileModificationSkew 10)
allowSystemOperations : Allowing user-supplied system call operations

// * * * * * * * * * * * * * * * * * * * * * * * * * * * * * * * * * * * * * //
Create time

Create mesh for time = 0

Reading transportProperties

Reading field p

Reading field U

Reading/calculating face flux field phi


Starting time loop

Time = 0.001

Courant Number mean: 0 max: 0
DILUPBiCGStab:  Solving for Ux, Initial residual = 1, Final residual = 0.00382019, No Iterations 5
DILUPBiCGStab:  Solving for Uy:  solution singularity
DILUPBiCGStab:  Solving for Uz:  solution singularity
linear solve U 251354
nonePBiCGStab:  Solving for p, Initial residual = 1, Final residual = 9.43334e-05, No Iterations 500
linear solve p 7373765
time step continuity errors : sum local = 1.10229e-07, global = -4.01534e-21, cumulative = -4.01534e-21
nonePBiCGStab:  Solving for p, Initial residual = 0.754778, Final residual = 3.40834e-05, No Iterations 501
linear solve p 7397745
time step continuity errors : sum local = 3.09414e-08, global = 2.9613e-21, cumulative = -1.05404e-21
ExecutionTime = 17.94 s  ClockTime = 18 s

Time = 0.002

Courant Number mean: 0.0479747 max: 0.661591
DILUPBiCGStab:  Solving for Ux, Initial residual = 0.144027, Final residual = 0.00147783, No Iterations 5
DILUPBiCGStab:  Solving for Uy, Initial residual = 0.397033, Final residual = 0.0036522, No Iterations 5
DILUPBiCGStab:  Solving for Uz, Initial residual = 0.987081, Final residual = 0.0100785, No Iterations 5
linear solve U 486935
nonePBiCGStab:  Solving for p, Initial residual = 0.746172, Final residual = 9.95956e-05, No Iterations 243
linear solve p 3563154
time step continuity errors : sum local = 1.75941e-07, global = 1.28193e-21, cumulative = 2.2789e-22
nonePBiCGStab:  Solving for p, Initial residual = 0.681932, Final residual = 9.95056e-05, No Iterations 252
linear solve p 3712310
time step continuity errors : sum local = 1.08136e-07, global = 2.23024e-20, cumulative = 2.25303e-20
ExecutionTime = 25.96 s  ClockTime = 26 s

Time = 0.003

Courant Number mean: 0.0723278 max: 0.77588
DILUPBiCGStab:  Solving for Ux, Initial residual = 0.0578664, Final residual = 0.000498024, No Iterations 5
DILUPBiCGStab:  Solving for Uy, Initial residual = 0.162697, Final residual = 0.00141333, No Iterations 5
DILUPBiCGStab:  Solving for Uz, Initial residual = 0.731853, Final residual = 0.00698453, No Iterations 5
linear solve U 486680
nonePBiCGStab:  Solving for p, Initial residual = 0.746882, Final residual = 9.99512e-05, No Iterations 211
linear solve p 3117582
time step continuity errors : sum local = 1.31821e-07, global = 9.12861e-21, cumulative = 3.16589e-20
nonePBiCGStab:  Solving for p, Initial residual = 0.707015, Final residual = 9.66377e-05, No Iterations 220
linear solve p 3237299
time step continuity errors : sum local = 9.27006e-08, global = 7.64435e-21, cumulative = 3.93032e-20
ExecutionTime = 33.07 s  ClockTime = 34 s

Time = 0.004

Courant Number mean: 0.0842016 max: 0.778402
DILUPBiCGStab:  Solving for Ux, Initial residual = 0.03137, Final residual = 0.000298966, No Iterations 5
DILUPBiCGStab:  Solving for Uy, Initial residual = 0.113597, Final residual = 0.000991039, No Iterations 5
DILUPBiCGStab:  Solving for Uz, Initial residual = 0.459256, Final residual = 0.00361106, No Iterations 5
linear solve U 487237
nonePBiCGStab:  Solving for p, Initial residual = 0.593514, Final residual = 6.18568e-05, No Iterations 466
linear solve p 6857844
time step continuity errors : sum local = 8.04496e-08, global = 4.74024e-21, cumulative = 4.40435e-20
nonePBiCGStab:  Solving for p, Initial residual = 0.529452, Final residual = 8.88521e-05, No Iterations 222
linear solve p 3283352
time step continuity errors : sum local = 1.01405e-07, global = -1.5249e-20, cumulative = 2.87945e-20
ExecutionTime = 43.93 s  ClockTime = 44 s

Time = 0.005

Courant Number mean: 0.0944214 max: 0.789547
DILUPBiCGStab:  Solving for Ux, Initial residual = 0.023151, Final residual = 0.000188225, No Iterations 5
DILUPBiCGStab:  Solving for Uy, Initial residual = 0.0601447, Final residual = 0.000438951, No Iterations 5
DILUPBiCGStab:  Solving for Uz, Initial residual = 0.292153, Final residual = 0.00260468, No Iterations 5
linear solve U 485289
nonePBiCGStab:  Solving for p, Initial residual = 0.55134, Final residual = 9.98944e-05, No Iterations 440
linear solve p 6451423
time step continuity errors : sum local = 8.84139e-08, global = -4.5e-21, cumulative = 2.42945e-20
nonePBiCGStab:  Solving for p, Initial residual = 0.497707, Final residual = 7.63625e-05, No Iterations 585
linear solve p 8602460
time step continuity errors : sum local = 4.12597e-08, global = 7.33482e-21, cumulative = 3.16293e-20
ExecutionTime = 59.69 s  ClockTime = 60 s

Time = 0.006

Courant Number mean: 0.101935 max: 0.795117
DILUPBiCGStab:  Solving for Ux, Initial residual = 0.0154012, Final residual = 0.00011657, No Iterations 5
DILUPBiCGStab:  Solving for Uy, Initial residual = 0.0481075, Final residual = 0.000341956, No Iterations 5
DILUPBiCGStab:  Solving for Uz, Initial residual = 0.231779, Final residual = 0.00217443, No Iterations 5
linear solve U 486824
nonePBiCGStab:  Solving for p, Initial residual = 0.408893, Final residual = 9.17561e-05, No Iterations 530
linear solve p 7803999
time step continuity errors : sum local = 4.87943e-08, global = 2.47757e-21, cumulative = 3.41069e-20
nonePBiCGStab:  Solving for p, Initial residual = 0.356906, Final residual = 9.98767e-05, No Iterations 475
linear solve p 6983149
time step continuity errors : sum local = 8.07646e-08, global = -1.34459e-20, cumulative = 2.0661e-20
ExecutionTime = 75.2 s  ClockTime = 76 s

Time = 0.007

Courant Number mean: 0.108318 max: 0.79877
DILUPBiCGStab:  Solving for Ux, Initial residual = 0.0127077, Final residual = 8.37163e-05, No Iterations 5
DILUPBiCGStab:  Solving for Uy, Initial residual = 0.0327226, Final residual = 0.000150054, No Iterations 5
DILUPBiCGStab:  Solving for Uz, Initial residual = 0.157368, Final residual = 0.00171211, No Iterations 5
linear solve U 486033
nonePBiCGStab:  Solving for p, Initial residual = 0.354834, Final residual = 9.85754e-05, No Iterations 477
linear solve p 7071145
time step continuity errors : sum local = 4.73766e-08, global = -3.20509e-21, cumulative = 1.74559e-20
nonePBiCGStab:  Solving for p, Initial residual = 0.308707, Final residual = 9.43102e-05, No Iterations 420
linear solve p 6192591
time step continuity errors : sum local = 7.79042e-08, global = -9.6534e-21, cumulative = 7.80249e-21
ExecutionTime = 89.17 s  ClockTime = 90 s

Time = 0.008

Courant Number mean: 0.113593 max: 0.802127
DILUPBiCGStab:  Solving for Ux, Initial residual = 0.0098721, Final residual = 5.82212e-05, No Iterations 5
DILUPBiCGStab:  Solving for Uy, Initial residual = 0.027254, Final residual = 0.000136325, No Iterations 5
DILUPBiCGStab:  Solving for Uz, Initial residual = 0.128322, Final residual = 0.0012428, No Iterations 5
linear solve U 485369
nonePBiCGStab:  Solving for p, Initial residual = 0.261889, Final residual = 8.82566e-05, No Iterations 474
linear solve p 6946311
time step continuity errors : sum local = 4.47641e-08, global = 2.66752e-20, cumulative = 3.44777e-20
nonePBiCGStab:  Solving for p, Initial residual = 0.225544, Final residual = 9.22461e-05, No Iterations 418
linear solve p 6147616
time step continuity errors : sum local = 7.21479e-08, global = -1.41552e-20, cumulative = 2.03225e-20
ExecutionTime = 102.98 s  ClockTime = 104 s

Time = 0.009

Courant Number mean: 0.118163 max: 0.804168
DILUPBiCGStab:  Solving for Ux, Initial residual = 0.00823063, Final residual = 4.4567e-05, No Iterations 5
DILUPBiCGStab:  Solving for Uy, Initial residual = 0.0216076, Final residual = 7.86793e-05, No Iterations 5
DILUPBiCGStab:  Solving for Uz, Initial residual = 0.0975272, Final residual = 0.00105025, No Iterations 5
linear solve U 486957
nonePBiCGStab:  Solving for p, Initial residual = 0.217318, Final residual = 9.25994e-05, No Iterations 468
linear solve p 6898272
time step continuity errors : sum local = 3.86309e-08, global = -7.11481e-21, cumulative = 1.32076e-20
nonePBiCGStab:  Solving for p, Initial residual = 0.186115, Final residual = 8.22422e-05, No Iterations 494
linear solve p 7262852
time step continuity errors : sum local = 3.29579e-08, global = -1.68427e-20, cumulative = -3.63508e-21
ExecutionTime = 117.85 s  ClockTime = 119 s

Time = 0.01

Courant Number mean: 0.122105 max: 0.806178
DILUPBiCGStab:  Solving for Ux, Initial residual = 0.00690798, Final residual = 3.32986e-05, No Iterations 5
DILUPBiCGStab:  Solving for Uy, Initial residual = 0.0183149, Final residual = 7.00062e-05, No Iterations 5
DILUPBiCGStab:  Solving for Uz, Initial residual = 0.0764328, Final residual = 0.000731425, No Iterations 5
linear solve U 486771
nonePBiCGStab:  Solving for p, Initial residual = 0.164842, Final residual = 7.13297e-05, No Iterations 490
linear solve p 7211217
time step continuity errors : sum local = 2.65768e-08, global = -1.48534e-20, cumulative = -1.84885e-20
nonePBiCGStab:  Solving for p, Initial residual = 0.140382, Final residual = 9.94976e-05, No Iterations 450
linear solve p 6628127
time step continuity errors : sum local = 4.78535e-08, global = -1.7359e-21, cumulative = -2.02244e-20
ExecutionTime = 132.4 s  ClockTime = 133 s

End

