/*---------------------------------------------------------------------------*\
  =========                 |
  \\      /  F ield         | OpenFOAM: The Open Source CFD Toolbox
   \\    /   O peration     | Website:  https://openfoam.org
    \\  /    A nd           | Version:  8
     \\/     M anipulation  |
\*---------------------------------------------------------------------------*/
Build  : 8-14d69e1ee166
Exec   : icoFoam
Date   : Jul 29 2021
Time   : 08:33:02
Host   : "guyot.icl.utk.edu"
PID    : 142902
I/O    : uncollated
Case   : /home/greole/code/OBR/lidDrivenCavity3D/Variation_mesh/10/Variation_matrix_solver/BiCGStab_NoPrecond_CUDA/base
nProcs : 1
sigFpe : Enabling floating point exception trapping (FOAM_SIGFPE).
fileModificationChecking : Monitoring run-time modified files using timeStampMaster (fileModificationSkew 10)
allowSystemOperations : Allowing user-supplied system call operations

// * * * * * * * * * * * * * * * * * * * * * * * * * * * * * * * * * * * * * //
Create time

Create mesh for time = 0

Reading transportProperties

Reading field p

Reading field U

Reading/calculating face flux field phi


Starting time loop

Time = 0.001

Courant Number mean: 0 max: 0
DILUPBiCGStab:  Solving for Ux, Initial residual = 1, Final residual = 8.04173e-19, No Iterations 5
DILUPBiCGStab:  Solving for Uy:  solution singularity
DILUPBiCGStab:  Solving for Uz:  solution singularity
linear solve U 456
[OGL LOG] init_host_sparsity_pattern : 0 ms
[OGL LOG] matrix not stored update host matrix
[OGL LOG] update_host_mtx : 0 ms
[OGL LOG] matrix is not yet sorted, compute sorting idxs
[OGL LOG] compute_sort : 6 ms
[OGL LOG] matrix is not yet sorted, sorting host matrix
[OGL LOG] sort_host_mtx_sparsity_pattern : 0 ms
[OGL LOG] sort_host_mtx : 0 ms
[OGL LOG] init_preconditioner : 0 ms
[OGL LOG] solve : 26 ms
nonecudaGKOBiCGStab:  Solving for p, Initial residual = 1, Final residual = 7.91199e-05, No Iterations 57
linear solve p 1690316
time step continuity errors : sum local = 3.94807e-08, global = -6.02187e-21, cumulative = -6.02187e-21
[OGL LOG] init_host_sparsity_pattern : 0 ms
[OGL LOG] matrix not stored update host matrix
[OGL LOG] update_host_mtx : 0 ms
[OGL LOG] matrix is not yet sorted, sorting host matrix
[OGL LOG] sort_host_mtx_sparsity_pattern : 0 ms
[OGL LOG] sort_host_mtx : 0 ms
[OGL LOG] init_preconditioner : 0 ms
[OGL LOG] solve : 25 ms
nonecudaGKOBiCGStab:  Solving for p, Initial residual = 0.190371, Final residual = 3.39704e-05, No Iterations 57
linear solve p 26461
time step continuity errors : sum local = 4.12612e-08, global = 4.11688e-21, cumulative = -1.905e-21
ExecutionTime = 1.74 s  ClockTime = 1 s

Time = 0.002

Courant Number mean: 0.00276869 max: 0.0123846
DILUPBiCGStab:  Solving for Ux, Initial residual = 0.271644, Final residual = 6.92899e-20, No Iterations 5
DILUPBiCGStab:  Solving for Uy, Initial residual = 0.305255, Final residual = 9.73406e-20, No Iterations 5
DILUPBiCGStab:  Solving for Uz, Initial residual = 0.478863, Final residual = 1.54745e-19, No Iterations 5
linear solve U 683
[OGL LOG] init_host_sparsity_pattern : 0 ms
[OGL LOG] matrix not stored update host matrix
[OGL LOG] update_host_mtx : 0 ms
[OGL LOG] matrix is not yet sorted, sorting host matrix
[OGL LOG] sort_host_mtx_sparsity_pattern : 0 ms
[OGL LOG] sort_host_mtx : 0 ms
[OGL LOG] init_preconditioner : 0 ms
[OGL LOG] solve : 21 ms
nonecudaGKOBiCGStab:  Solving for p, Initial residual = 0.124789, Final residual = 9.17732e-05, No Iterations 48
linear solve p 22521
time step continuity errors : sum local = 1.14223e-07, global = 1.08361e-21, cumulative = -8.2139e-22
[OGL LOG] init_host_sparsity_pattern : 0 ms
[OGL LOG] matrix not stored update host matrix
[OGL LOG] update_host_mtx : 0 ms
[OGL LOG] matrix is not yet sorted, sorting host matrix
[OGL LOG] sort_host_mtx_sparsity_pattern : 0 ms
[OGL LOG] sort_host_mtx : 0 ms
[OGL LOG] init_preconditioner : 0 ms
[OGL LOG] solve : 8 ms
nonecudaGKOBiCGStab:  Solving for p, Initial residual = 0.0212552, Final residual = 9.86324e-05, No Iterations 19
linear solve p 10084
time step continuity errors : sum local = 8.81344e-08, global = 2.12966e-20, cumulative = 2.04752e-20
ExecutionTime = 1.78 s  ClockTime = 1 s

Time = 0.003

Courant Number mean: 0.00491749 max: 0.0221391
DILUPBiCGStab:  Solving for Ux, Initial residual = 0.137882, Final residual = 3.70019e-20, No Iterations 5
DILUPBiCGStab:  Solving for Uy, Initial residual = 0.166013, Final residual = 4.87347e-20, No Iterations 5
DILUPBiCGStab:  Solving for Uz, Initial residual = 0.291025, Final residual = 1.02141e-19, No Iterations 5
linear solve U 673
[OGL LOG] init_host_sparsity_pattern : 0 ms
[OGL LOG] matrix not stored update host matrix
[OGL LOG] update_host_mtx : 0 ms
[OGL LOG] matrix is not yet sorted, sorting host matrix
[OGL LOG] sort_host_mtx_sparsity_pattern : 0 ms
[OGL LOG] sort_host_mtx : 0 ms
[OGL LOG] init_preconditioner : 0 ms
[OGL LOG] solve : 20 ms
nonecudaGKOBiCGStab:  Solving for p, Initial residual = 0.0635918, Final residual = 9.29913e-05, No Iterations 46
linear solve p 21497
time step continuity errors : sum local = 1.30704e-07, global = -2.3487e-20, cumulative = -3.01176e-21
[OGL LOG] init_host_sparsity_pattern : 0 ms
[OGL LOG] matrix not stored update host matrix
[OGL LOG] update_host_mtx : 0 ms
[OGL LOG] matrix is not yet sorted, sorting host matrix
[OGL LOG] sort_host_mtx_sparsity_pattern : 0 ms
[OGL LOG] sort_host_mtx : 0 ms
[OGL LOG] init_preconditioner : 0 ms
[OGL LOG] solve : 8 ms
nonecudaGKOBiCGStab:  Solving for p, Initial residual = 0.0132716, Final residual = 9.52978e-05, No Iterations 17
linear solve p 9459
time step continuity errors : sum local = 8.94377e-08, global = -2.69165e-21, cumulative = -5.70341e-21
ExecutionTime = 1.81 s  ClockTime = 1 s

Time = 0.004

Courant Number mean: 0.00660402 max: 0.0298429
DILUPBiCGStab:  Solving for Ux, Initial residual = 0.0843977, Final residual = 2.35698e-20, No Iterations 5
DILUPBiCGStab:  Solving for Uy, Initial residual = 0.1078, Final residual = 2.8438e-20, No Iterations 5
DILUPBiCGStab:  Solving for Uz, Initial residual = 0.193156, Final residual = 7.58267e-20, No Iterations 5
linear solve U 633
[OGL LOG] init_host_sparsity_pattern : 0 ms
[OGL LOG] matrix not stored update host matrix
[OGL LOG] update_host_mtx : 0 ms
[OGL LOG] matrix is not yet sorted, sorting host matrix
[OGL LOG] sort_host_mtx_sparsity_pattern : 0 ms
[OGL LOG] sort_host_mtx : 0 ms
[OGL LOG] init_preconditioner : 0 ms
[OGL LOG] solve : 21 ms
nonecudaGKOBiCGStab:  Solving for p, Initial residual = 0.0390636, Final residual = 7.91835e-05, No Iterations 49
linear solve p 22956
time step continuity errors : sum local = 1.21879e-07, global = -2.35399e-20, cumulative = -2.92433e-20
[OGL LOG] init_host_sparsity_pattern : 0 ms
[OGL LOG] matrix not stored update host matrix
[OGL LOG] update_host_mtx : 0 ms
[OGL LOG] matrix is not yet sorted, sorting host matrix
[OGL LOG] sort_host_mtx_sparsity_pattern : 0 ms
[OGL LOG] sort_host_mtx : 0 ms
[OGL LOG] init_preconditioner : 0 ms
[OGL LOG] solve : 7 ms
nonecudaGKOBiCGStab:  Solving for p, Initial residual = 0.00958259, Final residual = 9.57241e-05, No Iterations 16
linear solve p 9044
time step continuity errors : sum local = 9.17026e-08, global = 1.69076e-21, cumulative = -2.75526e-20
ExecutionTime = 1.84 s  ClockTime = 1 s

Time = 0.005

Courant Number mean: 0.00794448 max: 0.0359757
DILUPBiCGStab:  Solving for Ux, Initial residual = 0.0590347, Final residual = 1.62589e-20, No Iterations 5
DILUPBiCGStab:  Solving for Uy, Initial residual = 0.07645, Final residual = 1.78297e-20, No Iterations 5
DILUPBiCGStab:  Solving for Uz, Initial residual = 0.150316, Final residual = 6.36801e-20, No Iterations 5
linear solve U 634
[OGL LOG] init_host_sparsity_pattern : 0 ms
[OGL LOG] matrix not stored update host matrix
[OGL LOG] update_host_mtx : 0 ms
[OGL LOG] matrix is not yet sorted, sorting host matrix
[OGL LOG] sort_host_mtx_sparsity_pattern : 0 ms
[OGL LOG] sort_host_mtx : 0 ms
[OGL LOG] init_preconditioner : 0 ms
[OGL LOG] solve : 20 ms
nonecudaGKOBiCGStab:  Solving for p, Initial residual = 0.0281151, Final residual = 9.60807e-05, No Iterations 46
linear solve p 21780
time step continuity errors : sum local = 1.53518e-07, global = -1.30645e-20, cumulative = -4.0617e-20
[OGL LOG] init_host_sparsity_pattern : 0 ms
[OGL LOG] matrix not stored update host matrix
[OGL LOG] update_host_mtx : 0 ms
[OGL LOG] matrix is not yet sorted, sorting host matrix
[OGL LOG] sort_host_mtx_sparsity_pattern : 0 ms
[OGL LOG] sort_host_mtx : 0 ms
[OGL LOG] init_preconditioner : 0 ms
[OGL LOG] solve : 7 ms
nonecudaGKOBiCGStab:  Solving for p, Initial residual = 0.00737168, Final residual = 9.06645e-05, No Iterations 16
linear solve p 9010
time step continuity errors : sum local = 1.19292e-07, global = 2.19418e-20, cumulative = -1.86753e-20
ExecutionTime = 1.87 s  ClockTime = 2 s

Time = 0.006

Courant Number mean: 0.00902438 max: 0.0408975
DILUPBiCGStab:  Solving for Ux, Initial residual = 0.0444279, Final residual = 1.17387e-20, No Iterations 5
DILUPBiCGStab:  Solving for Uy, Initial residual = 0.0572633, Final residual = 1.17259e-20, No Iterations 5
DILUPBiCGStab:  Solving for Uz, Initial residual = 0.122512, Final residual = 5.08044e-20, No Iterations 5
linear solve U 727
[OGL LOG] init_host_sparsity_pattern : 0 ms
[OGL LOG] matrix not stored update host matrix
[OGL LOG] update_host_mtx : 0 ms
[OGL LOG] matrix is not yet sorted, sorting host matrix
[OGL LOG] sort_host_mtx_sparsity_pattern : 0 ms
[OGL LOG] sort_host_mtx : 0 ms
[OGL LOG] init_preconditioner : 0 ms
[OGL LOG] solve : 19 ms
nonecudaGKOBiCGStab:  Solving for p, Initial residual = 0.0228184, Final residual = 9.11806e-05, No Iterations 44
linear solve p 20849
time step continuity errors : sum local = 1.48476e-07, global = 1.20983e-20, cumulative = -6.57691e-21
[OGL LOG] init_host_sparsity_pattern : 0 ms
[OGL LOG] matrix not stored update host matrix
[OGL LOG] update_host_mtx : 0 ms
[OGL LOG] matrix is not yet sorted, sorting host matrix
[OGL LOG] sort_host_mtx_sparsity_pattern : 0 ms
[OGL LOG] sort_host_mtx : 0 ms
[OGL LOG] init_preconditioner : 0 ms
[OGL LOG] solve : 7 ms
nonecudaGKOBiCGStab:  Solving for p, Initial residual = 0.00582941, Final residual = 7.29725e-05, No Iterations 16
linear solve p 9018
time step continuity errors : sum local = 1.04027e-07, global = 1.1521e-20, cumulative = 4.94406e-21
ExecutionTime = 1.91 s  ClockTime = 2 s

Time = 0.007

Courant Number mean: 0.00990711 max: 0.04488
DILUPBiCGStab:  Solving for Ux, Initial residual = 0.0348987, Final residual = 8.75754e-21, No Iterations 5
DILUPBiCGStab:  Solving for Uy, Initial residual = 0.0446033, Final residual = 8.05666e-21, No Iterations 5
DILUPBiCGStab:  Solving for Uz, Initial residual = 0.102012, Final residual = 4.22351e-20, No Iterations 5
linear solve U 674
[OGL LOG] init_host_sparsity_pattern : 0 ms
[OGL LOG] matrix not stored update host matrix
[OGL LOG] update_host_mtx : 0 ms
[OGL LOG] matrix is not yet sorted, sorting host matrix
[OGL LOG] sort_host_mtx_sparsity_pattern : 0 ms
[OGL LOG] sort_host_mtx : 0 ms
[OGL LOG] init_preconditioner : 0 ms
[OGL LOG] solve : 19 ms
nonecudaGKOBiCGStab:  Solving for p, Initial residual = 0.0194912, Final residual = 8.73591e-05, No Iterations 45
linear solve p 21009
time step continuity errors : sum local = 1.3144e-07, global = -1.18783e-20, cumulative = -6.93426e-21
[OGL LOG] init_host_sparsity_pattern : 0 ms
[OGL LOG] matrix not stored update host matrix
[OGL LOG] update_host_mtx : 0 ms
[OGL LOG] matrix is not yet sorted, sorting host matrix
[OGL LOG] sort_host_mtx_sparsity_pattern : 0 ms
[OGL LOG] sort_host_mtx : 0 ms
[OGL LOG] init_preconditioner : 0 ms
[OGL LOG] solve : 7 ms
nonecudaGKOBiCGStab:  Solving for p, Initial residual = 0.00474863, Final residual = 9.93848e-05, No Iterations 16
linear solve p 8785
time step continuity errors : sum local = 1.20566e-07, global = 4.14715e-20, cumulative = 3.45373e-20
ExecutionTime = 1.94 s  ClockTime = 2 s

Time = 0.008

Courant Number mean: 0.0106745 max: 0.0481313
DILUPBiCGStab:  Solving for Ux, Initial residual = 0.0282004, Final residual = 6.84942e-21, No Iterations 5
DILUPBiCGStab:  Solving for Uy, Initial residual = 0.0357705, Final residual = 5.92454e-21, No Iterations 5
DILUPBiCGStab:  Solving for Uz, Initial residual = 0.0864289, Final residual = 3.57601e-20, No Iterations 5
linear solve U 628
[OGL LOG] init_host_sparsity_pattern : 0 ms
[OGL LOG] matrix not stored update host matrix
[OGL LOG] update_host_mtx : 0 ms
[OGL LOG] matrix is not yet sorted, sorting host matrix
[OGL LOG] sort_host_mtx_sparsity_pattern : 0 ms
[OGL LOG] sort_host_mtx : 0 ms
[OGL LOG] init_preconditioner : 0 ms
[OGL LOG] solve : 9 ms
nonecudaGKOBiCGStab:  Solving for p, Initial residual = 0.0167953, Final residual = 9.9786e-05, No Iterations 21
linear solve p 11142
time step continuity errors : sum local = 1.74033e-07, global = 1.02802e-20, cumulative = 4.48175e-20
[OGL LOG] init_host_sparsity_pattern : 0 ms
[OGL LOG] matrix not stored update host matrix
[OGL LOG] update_host_mtx : 0 ms
[OGL LOG] matrix is not yet sorted, sorting host matrix
[OGL LOG] sort_host_mtx_sparsity_pattern : 0 ms
[OGL LOG] sort_host_mtx : 0 ms
[OGL LOG] init_preconditioner : 0 ms
[OGL LOG] solve : 7 ms
nonecudaGKOBiCGStab:  Solving for p, Initial residual = 0.00392099, Final residual = 9.8019e-05, No Iterations 15
linear solve p 8603
time step continuity errors : sum local = 1.56983e-07, global = 2.68933e-20, cumulative = 7.17108e-20
ExecutionTime = 1.95 s  ClockTime = 2 s

Time = 0.009

Courant Number mean: 0.011344 max: 0.0508022
DILUPBiCGStab:  Solving for Ux, Initial residual = 0.0232022, Final residual = 5.57828e-21, No Iterations 5
DILUPBiCGStab:  Solving for Uy, Initial residual = 0.0293653, Final residual = 4.75447e-21, No Iterations 5
DILUPBiCGStab:  Solving for Uz, Initial residual = 0.0736903, Final residual = 2.86831e-20, No Iterations 5
linear solve U 625
[OGL LOG] init_host_sparsity_pattern : 0 ms
[OGL LOG] matrix not stored update host matrix
[OGL LOG] update_host_mtx : 0 ms
[OGL LOG] matrix is not yet sorted, sorting host matrix
[OGL LOG] sort_host_mtx_sparsity_pattern : 0 ms
[OGL LOG] sort_host_mtx : 0 ms
[OGL LOG] init_preconditioner : 0 ms
[OGL LOG] solve : 18 ms
nonecudaGKOBiCGStab:  Solving for p, Initial residual = 0.0150752, Final residual = 9.68048e-05, No Iterations 42
linear solve p 19974
time step continuity errors : sum local = 1.58401e-07, global = -2.43654e-20, cumulative = 4.73453e-20
[OGL LOG] init_host_sparsity_pattern : 0 ms
[OGL LOG] matrix not stored update host matrix
[OGL LOG] update_host_mtx : 0 ms
[OGL LOG] matrix is not yet sorted, sorting host matrix
[OGL LOG] sort_host_mtx_sparsity_pattern : 0 ms
[OGL LOG] sort_host_mtx : 0 ms
[OGL LOG] init_preconditioner : 0 ms
[OGL LOG] solve : 7 ms
nonecudaGKOBiCGStab:  Solving for p, Initial residual = 0.00332854, Final residual = 9.57511e-05, No Iterations 15
linear solve p 8423
time step continuity errors : sum local = 1.39371e-07, global = 3.69419e-21, cumulative = 5.10395e-20
ExecutionTime = 1.98 s  ClockTime = 2 s

Time = 0.01

Courant Number mean: 0.0119442 max: 0.053017
DILUPBiCGStab:  Solving for Ux, Initial residual = 0.0192937, Final residual = 4.68972e-21, No Iterations 5
DILUPBiCGStab:  Solving for Uy, Initial residual = 0.0245552, Final residual = 4.12877e-21, No Iterations 5
DILUPBiCGStab:  Solving for Uz, Initial residual = 0.0635576, Final residual = 2.61542e-20, No Iterations 5
linear solve U 639
[OGL LOG] init_host_sparsity_pattern : 0 ms
[OGL LOG] matrix not stored update host matrix
[OGL LOG] update_host_mtx : 0 ms
[OGL LOG] matrix is not yet sorted, sorting host matrix
[OGL LOG] sort_host_mtx_sparsity_pattern : 0 ms
[OGL LOG] sort_host_mtx : 0 ms
[OGL LOG] init_preconditioner : 0 ms
[OGL LOG] solve : 9 ms
nonecudaGKOBiCGStab:  Solving for p, Initial residual = 0.0134741, Final residual = 9.94185e-05, No Iterations 20
linear solve p 10513
time step continuity errors : sum local = 1.71971e-07, global = 2.65533e-20, cumulative = 7.75929e-20
[OGL LOG] init_host_sparsity_pattern : 0 ms
[OGL LOG] matrix not stored update host matrix
[OGL LOG] update_host_mtx : 0 ms
[OGL LOG] matrix is not yet sorted, sorting host matrix
[OGL LOG] sort_host_mtx_sparsity_pattern : 0 ms
[OGL LOG] sort_host_mtx : 0 ms
[OGL LOG] init_preconditioner : 0 ms
[OGL LOG] solve : 7 ms
nonecudaGKOBiCGStab:  Solving for p, Initial residual = 0.0027616, Final residual = 9.54383e-05, No Iterations 15
linear solve p 8615
time step continuity errors : sum local = 1.58786e-07, global = -9.1023e-21, cumulative = 6.84906e-20
ExecutionTime = 2 s  ClockTime = 2 s

End

