/*---------------------------------------------------------------------------*\
  =========                 |
  \\      /  F ield         | OpenFOAM: The Open Source CFD Toolbox
   \\    /   O peration     | Website:  https://openfoam.org
    \\  /    A nd           | Version:  8
     \\/     M anipulation  |
\*---------------------------------------------------------------------------*/
Build  : 8-40a5a48f630f
Exec   : icoFoam
Date   : Jul 28 2021
Time   : 12:02:22
Host   : "uc2n374.localdomain"
PID    : 2699256
I/O    : uncollated
Case   : /pfs/data5/home/kit/scc/nq7776/code/OBR/lidDrivenCavity3D/Variation_mesh/90/Variation_matrix_solver/BiCGStab_NoPrecond_OMP/base
nProcs : 1
sigFpe : Enabling floating point exception trapping (FOAM_SIGFPE).
fileModificationChecking : Monitoring run-time modified files using timeStampMaster (fileModificationSkew 10)
allowSystemOperations : Allowing user-supplied system call operations

// * * * * * * * * * * * * * * * * * * * * * * * * * * * * * * * * * * * * * //
Create time

Create mesh for time = 0

Reading transportProperties

Reading field p

Reading field U

Reading/calculating face flux field phi


Starting time loop

Time = 0.001

Courant Number mean: 0 max: 0
nonePBiCGStab:  Solving for Ux, Initial residual = 1, Final residual = 0.0756268, No Iterations 5
nonePBiCGStab:  Solving for Uy, Initial residual = 0, Final residual = 0, No Iterations 0
nonePBiCGStab:  Solving for Uz, Initial residual = 0, Final residual = 0, No Iterations 0
linear solve U 202
[OGL LOG] init_host_sparsity_pattern : 243 ms
[OGL LOG] matrix not stored update host matrix
[OGL LOG] update_host_mtx : 126 ms
[OGL LOG] matrix is not yet sorted, compute sorting idxs
[OGL LOG] compute_sort : 7556 ms
[OGL LOG] matrix is not yet sorted, sorting host matrix
[OGL LOG] sort_host_mtx_sparsity_pattern : 173 ms
[OGL LOG] sort_host_mtx : 102 ms
[OGL LOG] init_preconditioner : 0 ms
[OGL LOG] solve : 9057 ms
noneompGKOBiCGStab:  Solving for p, Initial residual = 1, Final residual = 9.55011e-05, No Iterations 570
linear solve p 17450
time step continuity errors : sum local = 1.27687e-06, global = -6.45242e-21, cumulative = -6.45242e-21
[OGL LOG] init_host_sparsity_pattern : 229 ms
[OGL LOG] matrix not stored update host matrix
[OGL LOG] update_host_mtx : 122 ms
[OGL LOG] matrix is not yet sorted, sorting host matrix
[OGL LOG] sort_host_mtx_sparsity_pattern : 177 ms
[OGL LOG] sort_host_mtx : 102 ms
[OGL LOG] init_preconditioner : 0 ms
[OGL LOG] solve : 5013 ms
noneompGKOBiCGStab:  Solving for p, Initial residual = 0.702412, Final residual = 9.87719e-05, No Iterations 299
linear solve p 5791
time step continuity errors : sum local = 1.02945e-07, global = 8.02617e-22, cumulative = -5.64981e-21
ExecutionTime = 459.61 s  ClockTime = 28 s

End

