/*---------------------------------------------------------------------------*\
  =========                 |
  \\      /  F ield         | OpenFOAM: The Open Source CFD Toolbox
   \\    /   O peration     | Website:  https://openfoam.org
    \\  /    A nd           | Version:  8
     \\/     M anipulation  |
\*---------------------------------------------------------------------------*/
Build  : 8-40a5a48f630f
Exec   : icoFoam
Date   : Jul 28 2021
Time   : 12:08:34
Host   : "uc2n412.localdomain"
PID    : 4072553
I/O    : uncollated
Case   : /pfs/data5/home/kit/scc/nq7776/code/OBR/lidDrivenCavity3D/Variation_mesh/25/Variation_matrix_solver/BiCGStab_NoPrecond_OMP/base
nProcs : 1
sigFpe : Enabling floating point exception trapping (FOAM_SIGFPE).
fileModificationChecking : Monitoring run-time modified files using timeStampMaster (fileModificationSkew 10)
allowSystemOperations : Allowing user-supplied system call operations

// * * * * * * * * * * * * * * * * * * * * * * * * * * * * * * * * * * * * * //
Create time

Create mesh for time = 0

Reading transportProperties

Reading field p

Reading field U

Reading/calculating face flux field phi


Starting time loop

Time = 0.001

Courant Number mean: 0 max: 0
nonePBiCGStab:  Solving for Ux, Initial residual = 1, Final residual = 0.00310183, No Iterations 5
nonePBiCGStab:  Solving for Uy, Initial residual = 0, Final residual = 0, No Iterations 0
nonePBiCGStab:  Solving for Uz, Initial residual = 0, Final residual = 0, No Iterations 0
linear solve U 2
[OGL LOG] init_host_sparsity_pattern : 4 ms
[OGL LOG] matrix not stored update host matrix
[OGL LOG] update_host_mtx : 2 ms
[OGL LOG] matrix is not yet sorted, compute sorting idxs
[OGL LOG] compute_sort : 105 ms
[OGL LOG] matrix is not yet sorted, sorting host matrix
[OGL LOG] sort_host_mtx_sparsity_pattern : 3 ms
[OGL LOG] sort_host_mtx : 1 ms
[OGL LOG] init_preconditioner : 0 ms
[OGL LOG] solve : 53 ms
noneompGKOBiCGStab:  Solving for p, Initial residual = 1, Final residual = 7.67433e-05, No Iterations 160
linear solve p 175
time step continuity errors : sum local = 3.15488e-07, global = -1.89242e-20, cumulative = -1.89242e-20
[OGL LOG] init_host_sparsity_pattern : 4 ms
[OGL LOG] matrix not stored update host matrix
[OGL LOG] update_host_mtx : 2 ms
[OGL LOG] matrix is not yet sorted, sorting host matrix
[OGL LOG] sort_host_mtx_sparsity_pattern : 3 ms
[OGL LOG] sort_host_mtx : 1 ms
[OGL LOG] init_preconditioner : 0 ms
[OGL LOG] solve : 52 ms
noneompGKOBiCGStab:  Solving for p, Initial residual = 0.480796, Final residual = 9.14242e-05, No Iterations 159
linear solve p 65
time step continuity errors : sum local = 7.1309e-07, global = 1.08655e-20, cumulative = -8.05876e-21
ExecutionTime = 1.35 s  ClockTime = 1 s

Time = 0.002

Courant Number mean: 0.0119715 max: 0.106554
nonePBiCGStab:  Solving for Ux, Initial residual = 0.21085, Final residual = 0.000695663, No Iterations 5
nonePBiCGStab:  Solving for Uy, Initial residual = 0.28452, Final residual = 0.000650904, No Iterations 5
nonePBiCGStab:  Solving for Uz, Initial residual = 0.870899, Final residual = 0.00343214, No Iterations 5
linear solve U 5
[OGL LOG] init_host_sparsity_pattern : 4 ms
[OGL LOG] matrix not stored update host matrix
[OGL LOG] update_host_mtx : 2 ms
[OGL LOG] matrix is not yet sorted, sorting host matrix
[OGL LOG] sort_host_mtx_sparsity_pattern : 3 ms
[OGL LOG] sort_host_mtx : 1 ms
[OGL LOG] init_preconditioner : 0 ms
[OGL LOG] solve : 48 ms
noneompGKOBiCGStab:  Solving for p, Initial residual = 0.286476, Final residual = 8.56917e-05, No Iterations 146
linear solve p 60
time step continuity errors : sum local = 3.79673e-07, global = 7.26657e-21, cumulative = -7.92181e-22
[OGL LOG] init_host_sparsity_pattern : 4 ms
[OGL LOG] matrix not stored update host matrix
[OGL LOG] update_host_mtx : 2 ms
[OGL LOG] matrix is not yet sorted, sorting host matrix
[OGL LOG] sort_host_mtx_sparsity_pattern : 2 ms
[OGL LOG] sort_host_mtx : 1 ms
[OGL LOG] init_preconditioner : 0 ms
[OGL LOG] solve : 48 ms
noneompGKOBiCGStab:  Solving for p, Initial residual = 0.189624, Final residual = 9.20676e-05, No Iterations 145
linear solve p 61
time step continuity errors : sum local = 8.26866e-07, global = -8.90936e-21, cumulative = -9.70154e-21
ExecutionTime = 2.44 s  ClockTime = 1 s

Time = 0.003

Courant Number mean: 0.0188466 max: 0.153564
nonePBiCGStab:  Solving for Ux, Initial residual = 0.0900102, Final residual = 0.000292377, No Iterations 5
nonePBiCGStab:  Solving for Uy, Initial residual = 0.124874, Final residual = 0.000207615, No Iterations 5
nonePBiCGStab:  Solving for Uz, Initial residual = 0.272912, Final residual = 0.00105237, No Iterations 5
linear solve U 5
[OGL LOG] init_host_sparsity_pattern : 4 ms
[OGL LOG] matrix not stored update host matrix
[OGL LOG] update_host_mtx : 2 ms
[OGL LOG] matrix is not yet sorted, sorting host matrix
[OGL LOG] sort_host_mtx_sparsity_pattern : 3 ms
[OGL LOG] sort_host_mtx : 1 ms
[OGL LOG] init_preconditioner : 0 ms
[OGL LOG] solve : 46 ms
noneompGKOBiCGStab:  Solving for p, Initial residual = 0.103976, Final residual = 8.98467e-05, No Iterations 139
linear solve p 58
time step continuity errors : sum local = 4.58857e-07, global = -2.86376e-20, cumulative = -3.83391e-20
[OGL LOG] init_host_sparsity_pattern : 4 ms
[OGL LOG] matrix not stored update host matrix
[OGL LOG] update_host_mtx : 2 ms
[OGL LOG] matrix is not yet sorted, sorting host matrix
[OGL LOG] sort_host_mtx_sparsity_pattern : 2 ms
[OGL LOG] sort_host_mtx : 1 ms
[OGL LOG] init_preconditioner : 0 ms
[OGL LOG] solve : 44 ms
noneompGKOBiCGStab:  Solving for p, Initial residual = 0.0705531, Final residual = 9.55161e-05, No Iterations 134
linear solve p 57
time step continuity errors : sum local = 4.50828e-07, global = 1.31296e-20, cumulative = -2.52095e-20
ExecutionTime = 3.46 s  ClockTime = 1 s

Time = 0.004

Courant Number mean: 0.0233145 max: 0.175119
nonePBiCGStab:  Solving for Ux, Initial residual = 0.0520965, Final residual = 0.000103193, No Iterations 5
nonePBiCGStab:  Solving for Uy, Initial residual = 0.0743112, Final residual = 7.48646e-05, No Iterations 5
nonePBiCGStab:  Solving for Uz, Initial residual = 0.130725, Final residual = 0.000292631, No Iterations 5
linear solve U 5
[OGL LOG] init_host_sparsity_pattern : 4 ms
[OGL LOG] matrix not stored update host matrix
[OGL LOG] update_host_mtx : 2 ms
[OGL LOG] matrix is not yet sorted, sorting host matrix
[OGL LOG] sort_host_mtx_sparsity_pattern : 3 ms
[OGL LOG] sort_host_mtx : 1 ms
[OGL LOG] init_preconditioner : 0 ms
[OGL LOG] solve : 18 ms
noneompGKOBiCGStab:  Solving for p, Initial residual = 0.0555826, Final residual = 8.13572e-05, No Iterations 55
linear solve p 30
time step continuity errors : sum local = 2.40498e-07, global = -1.27913e-20, cumulative = -3.80008e-20
[OGL LOG] init_host_sparsity_pattern : 4 ms
[OGL LOG] matrix not stored update host matrix
[OGL LOG] update_host_mtx : 2 ms
[OGL LOG] matrix is not yet sorted, sorting host matrix
[OGL LOG] sort_host_mtx_sparsity_pattern : 2 ms
[OGL LOG] sort_host_mtx : 1 ms
[OGL LOG] init_preconditioner : 0 ms
[OGL LOG] solve : 17 ms
noneompGKOBiCGStab:  Solving for p, Initial residual = 0.0371012, Final residual = 8.69949e-05, No Iterations 51
linear solve p 30
time step continuity errors : sum local = 1.26993e-07, global = 1.28201e-20, cumulative = -2.51808e-20
ExecutionTime = 3.95 s  ClockTime = 1 s

Time = 0.005

Courant Number mean: 0.0264937 max: 0.186504
nonePBiCGStab:  Solving for Ux, Initial residual = 0.0350751, Final residual = 3.75884e-05, No Iterations 5
nonePBiCGStab:  Solving for Uy, Initial residual = 0.0509023, Final residual = 2.80515e-05, No Iterations 5
nonePBiCGStab:  Solving for Uz, Initial residual = 0.0919559, Final residual = 0.00016759, No Iterations 5
linear solve U 5
[OGL LOG] init_host_sparsity_pattern : 4 ms
[OGL LOG] matrix not stored update host matrix
[OGL LOG] update_host_mtx : 2 ms
[OGL LOG] matrix is not yet sorted, sorting host matrix
[OGL LOG] sort_host_mtx_sparsity_pattern : 3 ms
[OGL LOG] sort_host_mtx : 1 ms
[OGL LOG] init_preconditioner : 0 ms
[OGL LOG] solve : 17 ms
noneompGKOBiCGStab:  Solving for p, Initial residual = 0.0351526, Final residual = 8.81637e-05, No Iterations 53
linear solve p 30
time step continuity errors : sum local = 1.21102e-07, global = -1.7226e-20, cumulative = -4.24068e-20
[OGL LOG] init_host_sparsity_pattern : 4 ms
[OGL LOG] matrix not stored update host matrix
[OGL LOG] update_host_mtx : 2 ms
[OGL LOG] matrix is not yet sorted, sorting host matrix
[OGL LOG] sort_host_mtx_sparsity_pattern : 2 ms
[OGL LOG] sort_host_mtx : 1 ms
[OGL LOG] init_preconditioner : 0 ms
[OGL LOG] solve : 18 ms
noneompGKOBiCGStab:  Solving for p, Initial residual = 0.0233114, Final residual = 9.13967e-05, No Iterations 56
linear solve p 31
time step continuity errors : sum local = 1.06469e-07, global = -7.82291e-21, cumulative = -5.02297e-20
ExecutionTime = 4.43 s  ClockTime = 1 s

Time = 0.006

Courant Number mean: 0.0288953 max: 0.193336
nonePBiCGStab:  Solving for Ux, Initial residual = 0.0259432, Final residual = 1.40175e-05, No Iterations 5
nonePBiCGStab:  Solving for Uy, Initial residual = 0.0380126, Final residual = 1.67015e-05, No Iterations 5
nonePBiCGStab:  Solving for Uz, Initial residual = 0.0709784, Final residual = 6.58045e-05, No Iterations 5
linear solve U 5
[OGL LOG] init_host_sparsity_pattern : 4 ms
[OGL LOG] matrix not stored update host matrix
[OGL LOG] update_host_mtx : 2 ms
[OGL LOG] matrix is not yet sorted, sorting host matrix
[OGL LOG] sort_host_mtx_sparsity_pattern : 3 ms
[OGL LOG] sort_host_mtx : 1 ms
[OGL LOG] init_preconditioner : 0 ms
[OGL LOG] solve : 18 ms
noneompGKOBiCGStab:  Solving for p, Initial residual = 0.0245356, Final residual = 9.86021e-05, No Iterations 54
linear solve p 30
time step continuity errors : sum local = 8.79367e-08, global = -8.63204e-21, cumulative = -5.88618e-20
[OGL LOG] init_host_sparsity_pattern : 4 ms
[OGL LOG] matrix not stored update host matrix
[OGL LOG] update_host_mtx : 2 ms
[OGL LOG] matrix is not yet sorted, sorting host matrix
[OGL LOG] sort_host_mtx_sparsity_pattern : 3 ms
[OGL LOG] sort_host_mtx : 1 ms
[OGL LOG] init_preconditioner : 0 ms
[OGL LOG] solve : 16 ms
noneompGKOBiCGStab:  Solving for p, Initial residual = 0.0164619, Final residual = 8.18063e-05, No Iterations 49
linear solve p 29
time step continuity errors : sum local = 8.87414e-08, global = -1.5938e-20, cumulative = -7.47998e-20
ExecutionTime = 4.89 s  ClockTime = 1 s

Time = 0.007

Courant Number mean: 0.0308308 max: 0.197891
nonePBiCGStab:  Solving for Ux, Initial residual = 0.0203563, Final residual = 7.06682e-06, No Iterations 5
nonePBiCGStab:  Solving for Uy, Initial residual = 0.0300416, Final residual = 1.01471e-05, No Iterations 5
nonePBiCGStab:  Solving for Uz, Initial residual = 0.0574223, Final residual = 4.47929e-05, No Iterations 5
linear solve U 5
[OGL LOG] init_host_sparsity_pattern : 4 ms
[OGL LOG] matrix not stored update host matrix
[OGL LOG] update_host_mtx : 2 ms
[OGL LOG] matrix is not yet sorted, sorting host matrix
[OGL LOG] sort_host_mtx_sparsity_pattern : 3 ms
[OGL LOG] sort_host_mtx : 1 ms
[OGL LOG] init_preconditioner : 0 ms
[OGL LOG] solve : 18 ms
noneompGKOBiCGStab:  Solving for p, Initial residual = 0.0186492, Final residual = 9.13412e-05, No Iterations 54
linear solve p 30
time step continuity errors : sum local = 9.61971e-08, global = 9.00583e-21, cumulative = -6.57939e-20
[OGL LOG] init_host_sparsity_pattern : 4 ms
[OGL LOG] matrix not stored update host matrix
[OGL LOG] update_host_mtx : 2 ms
[OGL LOG] matrix is not yet sorted, sorting host matrix
[OGL LOG] sort_host_mtx_sparsity_pattern : 3 ms
[OGL LOG] sort_host_mtx : 1 ms
[OGL LOG] init_preconditioner : 0 ms
[OGL LOG] solve : 17 ms
noneompGKOBiCGStab:  Solving for p, Initial residual = 0.0126409, Final residual = 8.82283e-05, No Iterations 51
linear solve p 29
time step continuity errors : sum local = 8.81553e-08, global = -4.35986e-21, cumulative = -7.01538e-20
ExecutionTime = 5.36 s  ClockTime = 1 s

Time = 0.008

Courant Number mean: 0.0324765 max: 0.201171
nonePBiCGStab:  Solving for Ux, Initial residual = 0.0165444, Final residual = 4.92848e-06, No Iterations 5
nonePBiCGStab:  Solving for Uy, Initial residual = 0.024598, Final residual = 6.5444e-06, No Iterations 5
nonePBiCGStab:  Solving for Uz, Initial residual = 0.0480364, Final residual = 3.18439e-05, No Iterations 5
linear solve U 5
[OGL LOG] init_host_sparsity_pattern : 4 ms
[OGL LOG] matrix not stored update host matrix
[OGL LOG] update_host_mtx : 2 ms
[OGL LOG] matrix is not yet sorted, sorting host matrix
[OGL LOG] sort_host_mtx_sparsity_pattern : 3 ms
[OGL LOG] sort_host_mtx : 1 ms
[OGL LOG] init_preconditioner : 0 ms
[OGL LOG] solve : 17 ms
noneompGKOBiCGStab:  Solving for p, Initial residual = 0.0150954, Final residual = 9.7717e-05, No Iterations 51
linear solve p 29
time step continuity errors : sum local = 9.90472e-08, global = 2.75681e-20, cumulative = -4.25857e-20
[OGL LOG] init_host_sparsity_pattern : 4 ms
[OGL LOG] matrix not stored update host matrix
[OGL LOG] update_host_mtx : 2 ms
[OGL LOG] matrix is not yet sorted, sorting host matrix
[OGL LOG] sort_host_mtx_sparsity_pattern : 3 ms
[OGL LOG] sort_host_mtx : 1 ms
[OGL LOG] init_preconditioner : 0 ms
[OGL LOG] solve : 16 ms
noneompGKOBiCGStab:  Solving for p, Initial residual = 0.0103368, Final residual = 9.13387e-05, No Iterations 48
linear solve p 28
time step continuity errors : sum local = 1.0154e-07, global = -2.93925e-20, cumulative = -7.19783e-20
ExecutionTime = 5.82 s  ClockTime = 1 s

Time = 0.009

Courant Number mean: 0.0338807 max: 0.203668
nonePBiCGStab:  Solving for Ux, Initial residual = 0.0137939, Final residual = 3.26659e-06, No Iterations 5
nonePBiCGStab:  Solving for Uy, Initial residual = 0.0206925, Final residual = 4.45868e-06, No Iterations 5
nonePBiCGStab:  Solving for Uz, Initial residual = 0.0410798, Final residual = 2.17749e-05, No Iterations 5
linear solve U 5
[OGL LOG] init_host_sparsity_pattern : 4 ms
[OGL LOG] matrix not stored update host matrix
[OGL LOG] update_host_mtx : 2 ms
[OGL LOG] matrix is not yet sorted, sorting host matrix
[OGL LOG] sort_host_mtx_sparsity_pattern : 3 ms
[OGL LOG] sort_host_mtx : 1 ms
[OGL LOG] init_preconditioner : 0 ms
[OGL LOG] solve : 17 ms
noneompGKOBiCGStab:  Solving for p, Initial residual = 0.0125728, Final residual = 7.43637e-05, No Iterations 52
linear solve p 30
time step continuity errors : sum local = 9.77598e-08, global = -5.16057e-22, cumulative = -7.24943e-20
[OGL LOG] init_host_sparsity_pattern : 4 ms
[OGL LOG] matrix not stored update host matrix
[OGL LOG] update_host_mtx : 2 ms
[OGL LOG] matrix is not yet sorted, sorting host matrix
[OGL LOG] sort_host_mtx_sparsity_pattern : 3 ms
[OGL LOG] sort_host_mtx : 1 ms
[OGL LOG] init_preconditioner : 0 ms
[OGL LOG] solve : 16 ms
noneompGKOBiCGStab:  Solving for p, Initial residual = 0.00866611, Final residual = 8.58268e-05, No Iterations 48
linear solve p 29
time step continuity errors : sum local = 1.13613e-07, global = -2.34814e-20, cumulative = -9.59757e-20
ExecutionTime = 6.28 s  ClockTime = 1 s

Time = 0.01

Courant Number mean: 0.035092 max: 0.205643
nonePBiCGStab:  Solving for Ux, Initial residual = 0.0117252, Final residual = 2.22581e-06, No Iterations 5
nonePBiCGStab:  Solving for Uy, Initial residual = 0.0177179, Final residual = 3.16587e-06, No Iterations 5
nonePBiCGStab:  Solving for Uz, Initial residual = 0.035588, Final residual = 1.61086e-05, No Iterations 5
linear solve U 5
[OGL LOG] init_host_sparsity_pattern : 4 ms
[OGL LOG] matrix not stored update host matrix
[OGL LOG] update_host_mtx : 2 ms
[OGL LOG] matrix is not yet sorted, sorting host matrix
[OGL LOG] sort_host_mtx_sparsity_pattern : 3 ms
[OGL LOG] sort_host_mtx : 1 ms
[OGL LOG] init_preconditioner : 0 ms
[OGL LOG] solve : 17 ms
noneompGKOBiCGStab:  Solving for p, Initial residual = 0.0106564, Final residual = 8.6261e-05, No Iterations 50
linear solve p 29
time step continuity errors : sum local = 9.32072e-08, global = -2.56321e-20, cumulative = -1.21608e-19
[OGL LOG] init_host_sparsity_pattern : 4 ms
[OGL LOG] matrix not stored update host matrix
[OGL LOG] update_host_mtx : 2 ms
[OGL LOG] matrix is not yet sorted, sorting host matrix
[OGL LOG] sort_host_mtx_sparsity_pattern : 2 ms
[OGL LOG] sort_host_mtx : 1 ms
[OGL LOG] init_preconditioner : 0 ms
[OGL LOG] solve : 15 ms
noneompGKOBiCGStab:  Solving for p, Initial residual = 0.00738519, Final residual = 6.52614e-05, No Iterations 47
linear solve p 28
time step continuity errors : sum local = 5.73831e-08, global = -3.35696e-21, cumulative = -1.24965e-19
ExecutionTime = 6.73 s  ClockTime = 1 s

End

