/*---------------------------------------------------------------------------*\
  =========                 |
  \\      /  F ield         | OpenFOAM: The Open Source CFD Toolbox
   \\    /   O peration     | Website:  https://openfoam.org
    \\  /    A nd           | Version:  8
     \\/     M anipulation  |
\*---------------------------------------------------------------------------*/
Build  : 8-ef60d22ea792
Exec   : icoFoam
Date   : Jul 28 2021
Time   : 17:46:07
Host   : "nla-gpu2.ianm.kit.edu"
PID    : 1569328
I/O    : uncollated
Case   : /home/greole/code/OBR/lidDrivenCavity3D/Variation_mesh/80/Variation_matrix_solver/BiCGStab_NoPrecond_HIP/base
nProcs : 1
sigFpe : Enabling floating point exception trapping (FOAM_SIGFPE).
fileModificationChecking : Monitoring run-time modified files using timeStampMaster (fileModificationSkew 10)
allowSystemOperations : Allowing user-supplied system call operations

// * * * * * * * * * * * * * * * * * * * * * * * * * * * * * * * * * * * * * //
Create time

Create mesh for time = 0

Reading transportProperties

Reading field p

Reading field U

Reading/calculating face flux field phi


Starting time loop

Time = 0.001

Courant Number mean: 0 max: 0
DILUPBiCGStab:  Solving for Ux, Initial residual = 1, Final residual = 0.00289442, No Iterations 5
DILUPBiCGStab:  Solving for Uy:  solution singularity
DILUPBiCGStab:  Solving for Uz:  solution singularity
linear solve U 209816
[OGL LOG] init_host_sparsity_pattern : 235 ms
[OGL LOG] matrix not stored update host matrix
[OGL LOG] update_host_mtx : 114 ms
[OGL LOG] matrix is not yet sorted, compute sorting idxs
[OGL LOG] compute_sort : 5008 ms
[OGL LOG] matrix is not yet sorted, sorting host matrix
[OGL LOG] sort_host_mtx_sparsity_pattern : 101 ms
[OGL LOG] sort_host_mtx : 61 ms
[OGL LOG] init_preconditioner : 0 ms
[OGL LOG] solve : 407 ms
nonehipGKOBiCGStab:  Solving for p, Initial residual = 1, Final residual = 9.53963e-05, No Iterations 529
linear solve p 6398527
time step continuity errors : sum local = 0.0206137, global = -3.26103e-18, cumulative = -3.26103e-18
[OGL LOG] init_host_sparsity_pattern : 220 ms
[OGL LOG] matrix not stored update host matrix
[OGL LOG] update_host_mtx : 106 ms
[OGL LOG] matrix is not yet sorted, sorting host matrix
[OGL LOG] sort_host_mtx_sparsity_pattern : 91 ms
[OGL LOG] sort_host_mtx : 54 ms
[OGL LOG] init_preconditioner : 0 ms
[OGL LOG] solve : 133 ms
nonehipGKOBiCGStab:  Solving for p, Initial residual = 0.983911, Final residual = 9.22297e-05, No Iterations 182
linear solve p 628278
time step continuity errors : sum local = 0.000252386, global = -3.36533e-21, cumulative = -3.2644e-18
ExecutionTime = 10.06 s  ClockTime = 9 s

Time = 0.002

Courant Number mean: 0.0455011 max: 0.616662
DILUPBiCGStab:  Solving for Ux, Initial residual = 0.153782, Final residual = 0.00109163, No Iterations 5
DILUPBiCGStab:  Solving for Uy, Initial residual = 0.586528, Final residual = 0.0023481, No Iterations 5
DILUPBiCGStab:  Solving for Uz, Initial residual = 0.869278, Final residual = 0.00263007, No Iterations 5
linear solve U 411203
[OGL LOG] init_host_sparsity_pattern : 220 ms
[OGL LOG] matrix not stored update host matrix
[OGL LOG] update_host_mtx : 108 ms
[OGL LOG] matrix is not yet sorted, sorting host matrix
[OGL LOG] sort_host_mtx_sparsity_pattern : 92 ms
[OGL LOG] sort_host_mtx : 54 ms
[OGL LOG] init_preconditioner : 0 ms
[OGL LOG] solve : 151 ms
nonehipGKOBiCGStab:  Solving for p, Initial residual = 0.944663, Final residual = 9.64095e-05, No Iterations 201
linear solve p 652484
time step continuity errors : sum local = 3.35084e-05, global = 3.35132e-20, cumulative = -3.23088e-18
[OGL LOG] init_host_sparsity_pattern : 217 ms
[OGL LOG] matrix not stored update host matrix
[OGL LOG] update_host_mtx : 106 ms
[OGL LOG] matrix is not yet sorted, sorting host matrix
[OGL LOG] sort_host_mtx_sparsity_pattern : 97 ms
[OGL LOG] sort_host_mtx : 56 ms
[OGL LOG] init_preconditioner : 0 ms
[OGL LOG] solve : 134 ms
nonehipGKOBiCGStab:  Solving for p, Initial residual = 0.812956, Final residual = 8.95795e-05, No Iterations 183
linear solve p 634915
time step continuity errors : sum local = 6.40174e-05, global = 2.59999e-21, cumulative = -3.22828e-18
ExecutionTime = 12.24 s  ClockTime = 11 s

Time = 0.003

Courant Number mean: 0.070079 max: 0.74074
DILUPBiCGStab:  Solving for Ux, Initial residual = 0.0602444, Final residual = 0.000315324, No Iterations 5
DILUPBiCGStab:  Solving for Uy, Initial residual = 0.379307, Final residual = 0.00136112, No Iterations 5
DILUPBiCGStab:  Solving for Uz, Initial residual = 0.888541, Final residual = 0.00209026, No Iterations 5
linear solve U 408197
[OGL LOG] init_host_sparsity_pattern : 219 ms
[OGL LOG] matrix not stored update host matrix
[OGL LOG] update_host_mtx : 105 ms
[OGL LOG] matrix is not yet sorted, sorting host matrix
[OGL LOG] sort_host_mtx_sparsity_pattern : 87 ms
[OGL LOG] sort_host_mtx : 54 ms
[OGL LOG] init_preconditioner : 0 ms
[OGL LOG] solve : 288 ms
nonehipGKOBiCGStab:  Solving for p, Initial residual = 0.964487, Final residual = 9.83242e-05, No Iterations 392
linear solve p 779387
time step continuity errors : sum local = 0.0289351, global = 3.0323e-18, cumulative = -1.95987e-19
[OGL LOG] init_host_sparsity_pattern : 217 ms
[OGL LOG] matrix not stored update host matrix
[OGL LOG] update_host_mtx : 105 ms
[OGL LOG] matrix is not yet sorted, sorting host matrix
[OGL LOG] sort_host_mtx_sparsity_pattern : 89 ms
[OGL LOG] sort_host_mtx : 54 ms
[OGL LOG] init_preconditioner : 0 ms
[OGL LOG] solve : 129 ms
nonehipGKOBiCGStab:  Solving for p, Initial residual = 0.939264, Final residual = 9.95591e-05, No Iterations 175
linear solve p 618680
time step continuity errors : sum local = 3.88002e-06, global = -1.72509e-21, cumulative = -1.97712e-19
ExecutionTime = 14.6 s  ClockTime = 13 s

Time = 0.004

Courant Number mean: 0.080127 max: 0.738998
DILUPBiCGStab:  Solving for Ux, Initial residual = 0.0437709, Final residual = 0.000299665, No Iterations 5
DILUPBiCGStab:  Solving for Uy, Initial residual = 0.531946, Final residual = 0.00182532, No Iterations 5
DILUPBiCGStab:  Solving for Uz, Initial residual = 0.881181, Final residual = 0.00271791, No Iterations 5
linear solve U 405007
[OGL LOG] init_host_sparsity_pattern : 216 ms
[OGL LOG] matrix not stored update host matrix
[OGL LOG] update_host_mtx : 105 ms
[OGL LOG] matrix is not yet sorted, sorting host matrix
[OGL LOG] sort_host_mtx_sparsity_pattern : 86 ms
[OGL LOG] sort_host_mtx : 56 ms
[OGL LOG] init_preconditioner : 0 ms
[OGL LOG] solve : 319 ms
nonehipGKOBiCGStab:  Solving for p, Initial residual = 0.932691, Final residual = 9.83836e-05, No Iterations 439
linear solve p 807510
time step continuity errors : sum local = 0.02197, global = -3.82278e-18, cumulative = -4.02049e-18
[OGL LOG] init_host_sparsity_pattern : 214 ms
[OGL LOG] matrix not stored update host matrix
[OGL LOG] update_host_mtx : 107 ms
[OGL LOG] matrix is not yet sorted, sorting host matrix
[OGL LOG] sort_host_mtx_sparsity_pattern : 91 ms
[OGL LOG] sort_host_mtx : 53 ms
[OGL LOG] init_preconditioner : 0 ms
[OGL LOG] solve : 131 ms
nonehipGKOBiCGStab:  Solving for p, Initial residual = 0.867377, Final residual = 9.68237e-05, No Iterations 180
linear solve p 619237
time step continuity errors : sum local = 0.000169867, global = -2.61542e-20, cumulative = -4.04664e-18
ExecutionTime = 17.02 s  ClockTime = 15 s

Time = 0.005

Courant Number mean: 0.092193 max: 0.770566
DILUPBiCGStab:  Solving for Ux, Initial residual = 0.0386803, Final residual = 0.000243085, No Iterations 5
DILUPBiCGStab:  Solving for Uy, Initial residual = 0.533234, Final residual = 0.00201356, No Iterations 5
DILUPBiCGStab:  Solving for Uz, Initial residual = 0.861308, Final residual = 0.00529758, No Iterations 5
linear solve U 404906
[OGL LOG] init_host_sparsity_pattern : 216 ms
[OGL LOG] matrix not stored update host matrix
[OGL LOG] update_host_mtx : 105 ms
[OGL LOG] matrix is not yet sorted, sorting host matrix
[OGL LOG] sort_host_mtx_sparsity_pattern : 89 ms
[OGL LOG] sort_host_mtx : 57 ms
[OGL LOG] init_preconditioner : 0 ms
[OGL LOG] solve : 308 ms
nonehipGKOBiCGStab:  Solving for p, Initial residual = 0.962047, Final residual = 5.99423e-05, No Iterations 424
linear solve p 798183
time step continuity errors : sum local = 1.36363, global = -2.42076e-16, cumulative = -2.46123e-16
[OGL LOG] init_host_sparsity_pattern : 217 ms
[OGL LOG] matrix not stored update host matrix
[OGL LOG] update_host_mtx : 105 ms
[OGL LOG] matrix is not yet sorted, sorting host matrix
[OGL LOG] sort_host_mtx_sparsity_pattern : 92 ms
[OGL LOG] sort_host_mtx : 55 ms
[OGL LOG] init_preconditioner : 0 ms
[OGL LOG] solve : 96 ms
nonehipGKOBiCGStab:  Solving for p, Initial residual = 0.988342, Final residual = 9.58558e-05, No Iterations 130
linear solve p 587261
time step continuity errors : sum local = 0.00326182, global = -2.37521e-18, cumulative = -2.48498e-16
ExecutionTime = 19.36 s  ClockTime = 17 s

Time = 0.006

Courant Number mean: 0.148435 max: 1.09484
DILUPBiCGStab:  Solving for Ux, Initial residual = 0.271207, Final residual = 0.00218706, No Iterations 5
DILUPBiCGStab:  Solving for Uy, Initial residual = 0.769292, Final residual = 0.00253166, No Iterations 5
DILUPBiCGStab:  Solving for Uz, Initial residual = 0.888911, Final residual = 0.00233319, No Iterations 5
linear solve U 405824
[OGL LOG] init_host_sparsity_pattern : 216 ms
[OGL LOG] matrix not stored update host matrix
[OGL LOG] update_host_mtx : 105 ms
[OGL LOG] matrix is not yet sorted, sorting host matrix
[OGL LOG] sort_host_mtx_sparsity_pattern : 90 ms
[OGL LOG] sort_host_mtx : 54 ms
[OGL LOG] init_preconditioner : 0 ms
[OGL LOG] solve : 101 ms
nonehipGKOBiCGStab:  Solving for p, Initial residual = 0.980174, Final residual = 9.33382e-05, No Iterations 136
linear solve p 588956
time step continuity errors : sum local = 0.0130211, global = 1.66366e-17, cumulative = -2.31862e-16
[OGL LOG] init_host_sparsity_pattern : 218 ms
[OGL LOG] matrix not stored update host matrix
[OGL LOG] update_host_mtx : 105 ms
[OGL LOG] matrix is not yet sorted, sorting host matrix
[OGL LOG] sort_host_mtx_sparsity_pattern : 87 ms
[OGL LOG] sort_host_mtx : 53 ms
[OGL LOG] init_preconditioner : 0 ms
[OGL LOG] solve : 102 ms
nonehipGKOBiCGStab:  Solving for p, Initial residual = 0.827027, Final residual = 9.71973e-05, No Iterations 140
linear solve p 588094
time step continuity errors : sum local = 0.0124969, global = 1.31469e-18, cumulative = -2.30547e-16
ExecutionTime = 21.35 s  ClockTime = 19 s

Time = 0.007

Courant Number mean: 0.423844 max: 7.06229
DILUPBiCGStab:  Solving for Ux, Initial residual = 0.344395, Final residual = 0.00184445, No Iterations 5
DILUPBiCGStab:  Solving for Uy, Initial residual = 0.795668, Final residual = 0.00263119, No Iterations 5
DILUPBiCGStab:  Solving for Uz, Initial residual = 0.90245, Final residual = 0.00186564, No Iterations 5
linear solve U 404511
[OGL LOG] init_host_sparsity_pattern : 217 ms
[OGL LOG] matrix not stored update host matrix
[OGL LOG] update_host_mtx : 105 ms
[OGL LOG] matrix is not yet sorted, sorting host matrix
[OGL LOG] sort_host_mtx_sparsity_pattern : 88 ms
[OGL LOG] sort_host_mtx : 56 ms
[OGL LOG] init_preconditioner : 0 ms
[OGL LOG] solve : 124 ms
nonehipGKOBiCGStab:  Solving for p, Initial residual = 0.990444, Final residual = 9.63767e-05, No Iterations 171
linear solve p 613247
time step continuity errors : sum local = 0.0249747, global = 1.1072e-17, cumulative = -2.19475e-16
[OGL LOG] init_host_sparsity_pattern : 216 ms
[OGL LOG] matrix not stored update host matrix
[OGL LOG] update_host_mtx : 105 ms
[OGL LOG] matrix is not yet sorted, sorting host matrix
[OGL LOG] sort_host_mtx_sparsity_pattern : 96 ms
[OGL LOG] sort_host_mtx : 53 ms
[OGL LOG] init_preconditioner : 0 ms
[OGL LOG] solve : 116 ms
nonehipGKOBiCGStab:  Solving for p, Initial residual = 0.835672, Final residual = 9.8844e-05, No Iterations 160
linear solve p 608968
time step continuity errors : sum local = 0.000213152, global = 1.08917e-18, cumulative = -2.18386e-16
ExecutionTime = 23.42 s  ClockTime = 21 s

Time = 0.008

Courant Number mean: 0.264242 max: 8.20568
DILUPBiCGStab:  Solving for Ux, Initial residual = 0.361903, Final residual = 0.00215837, No Iterations 5
DILUPBiCGStab:  Solving for Uy, Initial residual = 0.789875, Final residual = 0.00251691, No Iterations 5
DILUPBiCGStab:  Solving for Uz, Initial residual = 0.928777, Final residual = 0.00162922, No Iterations 5
linear solve U 408043
[OGL LOG] init_host_sparsity_pattern : 216 ms
[OGL LOG] matrix not stored update host matrix
[OGL LOG] update_host_mtx : 105 ms
[OGL LOG] matrix is not yet sorted, sorting host matrix
[OGL LOG] sort_host_mtx_sparsity_pattern : 92 ms
[OGL LOG] sort_host_mtx : 55 ms
[OGL LOG] init_preconditioner : 0 ms
[OGL LOG] solve : 310 ms
nonehipGKOBiCGStab:  Solving for p, Initial residual = 0.995116, Final residual = 5.3678e-05, No Iterations 426
linear solve p 802025
time step continuity errors : sum local = 0.000136804, global = 1.3043e-18, cumulative = -2.17081e-16
[OGL LOG] init_host_sparsity_pattern : 218 ms
[OGL LOG] matrix not stored update host matrix
[OGL LOG] update_host_mtx : 105 ms
[OGL LOG] matrix is not yet sorted, sorting host matrix
[OGL LOG] sort_host_mtx_sparsity_pattern : 95 ms
[OGL LOG] sort_host_mtx : 54 ms
[OGL LOG] init_preconditioner : 0 ms
[OGL LOG] solve : 131 ms
nonehipGKOBiCGStab:  Solving for p, Initial residual = 0.833026, Final residual = 9.95851e-05, No Iterations 180
linear solve p 626277
time step continuity errors : sum local = 0.000848046, global = 9.23054e-19, cumulative = -2.16158e-16
ExecutionTime = 25.83 s  ClockTime = 23 s

Time = 0.009

Courant Number mean: 0.260085 max: 23.3434
DILUPBiCGStab:  Solving for Ux, Initial residual = 0.435545, Final residual = 0.0033208, No Iterations 5
DILUPBiCGStab:  Solving for Uy, Initial residual = 0.757043, Final residual = 0.00299293, No Iterations 5
DILUPBiCGStab:  Solving for Uz, Initial residual = 0.933712, Final residual = 0.00122817, No Iterations 5
linear solve U 404283
[OGL LOG] init_host_sparsity_pattern : 216 ms
[OGL LOG] matrix not stored update host matrix
[OGL LOG] update_host_mtx : 105 ms
[OGL LOG] matrix is not yet sorted, sorting host matrix
[OGL LOG] sort_host_mtx_sparsity_pattern : 88 ms
[OGL LOG] sort_host_mtx : 52 ms
[OGL LOG] init_preconditioner : 0 ms
[OGL LOG] solve : 284 ms
nonehipGKOBiCGStab:  Solving for p, Initial residual = 0.996539, Final residual = 9.89474e-05, No Iterations 390
linear solve p 768882
time step continuity errors : sum local = 24.5513, global = -2.05468e-15, cumulative = -2.27084e-15
[OGL LOG] init_host_sparsity_pattern : 217 ms
[OGL LOG] matrix not stored update host matrix
[OGL LOG] update_host_mtx : 105 ms
[OGL LOG] matrix is not yet sorted, sorting host matrix
[OGL LOG] sort_host_mtx_sparsity_pattern : 89 ms
[OGL LOG] sort_host_mtx : 55 ms
[OGL LOG] init_preconditioner : 0 ms
[OGL LOG] solve : 96 ms
nonehipGKOBiCGStab:  Solving for p, Initial residual = 0.976311, Final residual = 9.77019e-05, No Iterations 131
linear solve p 584524
time step continuity errors : sum local = 0.018068, global = 2.12145e-17, cumulative = -2.24963e-15
ExecutionTime = 28.11 s  ClockTime = 25 s

Time = 0.01

Courant Number mean: 1.08277 max: 38.9238
DILUPBiCGStab:  Solving for Ux, Initial residual = 0.657015, Final residual = 0.00644513, No Iterations 5
DILUPBiCGStab:  Solving for Uy, Initial residual = 0.803323, Final residual = 0.00214756, No Iterations 5
DILUPBiCGStab:  Solving for Uz, Initial residual = 0.8891, Final residual = 0.00230845, No Iterations 5
linear solve U 403446
[OGL LOG] init_host_sparsity_pattern : 216 ms
[OGL LOG] matrix not stored update host matrix
[OGL LOG] update_host_mtx : 105 ms
[OGL LOG] matrix is not yet sorted, sorting host matrix
[OGL LOG] sort_host_mtx_sparsity_pattern : 92 ms
[OGL LOG] sort_host_mtx : 54 ms
[OGL LOG] init_preconditioner : 0 ms
[OGL LOG] solve : 294 ms
nonehipGKOBiCGStab:  Solving for p, Initial residual = 0.945031, Final residual = 9.99738e-05, No Iterations 401
linear solve p 785166
time step continuity errors : sum local = 4.72891, global = -5.6948e-17, cumulative = -2.30658e-15
[OGL LOG] init_host_sparsity_pattern : 216 ms
[OGL LOG] matrix not stored update host matrix
[OGL LOG] update_host_mtx : 105 ms
[OGL LOG] matrix is not yet sorted, sorting host matrix
[OGL LOG] sort_host_mtx_sparsity_pattern : 86 ms
[OGL LOG] sort_host_mtx : 55 ms
[OGL LOG] init_preconditioner : 0 ms
[OGL LOG] solve : 144 ms
nonehipGKOBiCGStab:  Solving for p, Initial residual = 0.787328, Final residual = 9.73605e-05, No Iterations 197
linear solve p 629466
time step continuity errors : sum local = 0.00891337, global = 5.07426e-19, cumulative = -2.30607e-15
ExecutionTime = 30.5 s  ClockTime = 27 s

End

