/*---------------------------------------------------------------------------*\
  =========                 |
  \\      /  F ield         | OpenFOAM: The Open Source CFD Toolbox
   \\    /   O peration     | Website:  https://openfoam.org
    \\  /    A nd           | Version:  8
     \\/     M anipulation  |
\*---------------------------------------------------------------------------*/
Build  : 8-14d69e1ee166
Exec   : icoFoam
Date   : Jul 29 2021
Time   : 07:59:49
Host   : "guyot.icl.utk.edu"
PID    : 73040
I/O    : uncollated
Case   : /home/greole/code/OBR/lidDrivenCavity3D/Variation_mesh/90/Variation_matrix_solver/CG_DIC_Serial/base
nProcs : 1
sigFpe : Enabling floating point exception trapping (FOAM_SIGFPE).
fileModificationChecking : Monitoring run-time modified files using timeStampMaster (fileModificationSkew 10)
allowSystemOperations : Allowing user-supplied system call operations

// * * * * * * * * * * * * * * * * * * * * * * * * * * * * * * * * * * * * * //
Create time

Create mesh for time = 0

Reading transportProperties

Reading field p

Reading field U

Reading/calculating face flux field phi


Starting time loop

Time = 0.001

Courant Number mean: 0 max: 0
DILUPBiCGStab:  Solving for Ux, Initial residual = 1, Final residual = 0.00485432, No Iterations 5
DILUPBiCGStab:  Solving for Uy:  solution singularity
DILUPBiCGStab:  Solving for Uz:  solution singularity
linear solve U 281308
DICPCG:  Solving for p, Initial residual = 1, Final residual = 9.86683e-05, No Iterations 217
linear solve p 3230200
time step continuity errors : sum local = 5.7357e-08, global = 1.23311e-20, cumulative = 1.23311e-20
DICPCG:  Solving for p, Initial residual = 0.763278, Final residual = 9.23303e-05, No Iterations 224
linear solve p 3316662
time step continuity errors : sum local = 6.86493e-08, global = -2.05773e-21, cumulative = 1.02734e-20
ExecutionTime = 10.23 s  ClockTime = 11 s

Time = 0.002

Courant Number mean: 0.0507368 max: 0.709498
DILUPBiCGStab:  Solving for Ux, Initial residual = 0.142057, Final residual = 0.00197772, No Iterations 5
DILUPBiCGStab:  Solving for Uy, Initial residual = 0.408401, Final residual = 0.00514583, No Iterations 5
DILUPBiCGStab:  Solving for Uz, Initial residual = 0.989063, Final residual = 0.0136247, No Iterations 5
linear solve U 554651
DICPCG:  Solving for p, Initial residual = 0.765662, Final residual = 9.7856e-05, No Iterations 222
linear solve p 3301900
time step continuity errors : sum local = 9.38457e-08, global = 8.41903e-21, cumulative = 1.86924e-20
DICPCG:  Solving for p, Initial residual = 0.702755, Final residual = 9.80062e-05, No Iterations 221
linear solve p 3294154
time step continuity errors : sum local = 9.59231e-08, global = 1.86851e-20, cumulative = 3.73775e-20
ExecutionTime = 17.7 s  ClockTime = 18 s

Time = 0.003

Courant Number mean: 0.0767031 max: 0.830952
DILUPBiCGStab:  Solving for Ux, Initial residual = 0.0602973, Final residual = 0.000670337, No Iterations 5
DILUPBiCGStab:  Solving for Uy, Initial residual = 0.181398, Final residual = 0.00183518, No Iterations 5
DILUPBiCGStab:  Solving for Uz, Initial residual = 0.759676, Final residual = 0.0094994, No Iterations 5
linear solve U 551343
DICPCG:  Solving for p, Initial residual = 0.780655, Final residual = 9.03108e-05, No Iterations 123
linear solve p 1839411
time step continuity errors : sum local = 7.9256e-08, global = -9.91465e-22, cumulative = 3.63861e-20
DICPCG:  Solving for p, Initial residual = 0.744, Final residual = 9.04612e-05, No Iterations 122
linear solve p 1826014
time step continuity errors : sum local = 7.35886e-08, global = -1.43473e-21, cumulative = 3.49513e-20
ExecutionTime = 22.24 s  ClockTime = 23 s

Time = 0.004

Courant Number mean: 0.0889413 max: 0.827773
DILUPBiCGStab:  Solving for Ux, Initial residual = 0.0330556, Final residual = 0.0004391, No Iterations 5
DILUPBiCGStab:  Solving for Uy, Initial residual = 0.130017, Final residual = 0.0015333, No Iterations 5
DILUPBiCGStab:  Solving for Uz, Initial residual = 0.521706, Final residual = 0.00553734, No Iterations 5
linear solve U 552327
DICPCG:  Solving for p, Initial residual = 0.652556, Final residual = 8.45563e-05, No Iterations 122
linear solve p 1826228
time step continuity errors : sum local = 6.22527e-08, global = 5.95112e-21, cumulative = 4.09024e-20
DICPCG:  Solving for p, Initial residual = 0.587152, Final residual = 9.11052e-05, No Iterations 121
linear solve p 1810275
time step continuity errors : sum local = 6.68146e-08, global = -8.69101e-21, cumulative = 3.22114e-20
ExecutionTime = 26.75 s  ClockTime = 27 s

Time = 0.005

Courant Number mean: 0.0998626 max: 0.839558
DILUPBiCGStab:  Solving for Ux, Initial residual = 0.0250837, Final residual = 0.000295, No Iterations 5
DILUPBiCGStab:  Solving for Uy, Initial residual = 0.0681796, Final residual = 0.000857019, No Iterations 5
DILUPBiCGStab:  Solving for Uz, Initial residual = 0.372493, Final residual = 0.00375568, No Iterations 5
linear solve U 552553
DICPCG:  Solving for p, Initial residual = 0.628506, Final residual = 9.82841e-05, No Iterations 106
linear solve p 1590066
time step continuity errors : sum local = 6.66622e-08, global = -3.37692e-21, cumulative = 2.88345e-20
DICPCG:  Solving for p, Initial residual = 0.576593, Final residual = 7.97515e-05, No Iterations 106
linear solve p 1588346
time step continuity errors : sum local = 4.84036e-08, global = 2.26951e-21, cumulative = 3.1104e-20
ExecutionTime = 30.81 s  ClockTime = 31 s

Time = 0.006

Courant Number mean: 0.107709 max: 0.845126
DILUPBiCGStab:  Solving for Ux, Initial residual = 0.0160715, Final residual = 0.000182466, No Iterations 5
DILUPBiCGStab:  Solving for Uy, Initial residual = 0.0558894, Final residual = 0.000624321, No Iterations 5
DILUPBiCGStab:  Solving for Uz, Initial residual = 0.265592, Final residual = 0.00279385, No Iterations 5
linear solve U 551218
DICPCG:  Solving for p, Initial residual = 0.494568, Final residual = 9.81915e-05, No Iterations 106
linear solve p 1587447
time step continuity errors : sum local = 6.0838e-08, global = 2.40555e-21, cumulative = 3.35096e-20
DICPCG:  Solving for p, Initial residual = 0.438761, Final residual = 9.03652e-05, No Iterations 105
linear solve p 1575346
time step continuity errors : sum local = 4.96245e-08, global = 1.47335e-20, cumulative = 4.82431e-20
ExecutionTime = 34.85 s  ClockTime = 35 s

Time = 0.007

Courant Number mean: 0.114495 max: 0.848539
DILUPBiCGStab:  Solving for Ux, Initial residual = 0.0136238, Final residual = 0.00013678, No Iterations 5
DILUPBiCGStab:  Solving for Uy, Initial residual = 0.0360622, Final residual = 0.000312631, No Iterations 5
DILUPBiCGStab:  Solving for Uz, Initial residual = 0.175262, Final residual = 0.00211571, No Iterations 5
linear solve U 550830
DICPCG:  Solving for p, Initial residual = 0.455401, Final residual = 9.41706e-05, No Iterations 216
linear solve p 3214088
time step continuity errors : sum local = 4.14965e-08, global = -3.07302e-21, cumulative = 4.51701e-20
DICPCG:  Solving for p, Initial residual = 0.40226, Final residual = 9.94392e-05, No Iterations 213
linear solve p 3171549
time step continuity errors : sum local = 4.36946e-08, global = 1.13163e-21, cumulative = 4.63017e-20
ExecutionTime = 42.11 s  ClockTime = 42 s

Time = 0.008

Courant Number mean: 0.120058 max: 0.852071
DILUPBiCGStab:  Solving for Ux, Initial residual = 0.00997438, Final residual = 8.95444e-05, No Iterations 5
DILUPBiCGStab:  Solving for Uy, Initial residual = 0.0308273, Final residual = 0.000267922, No Iterations 5
DILUPBiCGStab:  Solving for Uz, Initial residual = 0.133596, Final residual = 0.00150804, No Iterations 5
linear solve U 558267
DICPCG:  Solving for p, Initial residual = 0.351452, Final residual = 9.46801e-05, No Iterations 212
linear solve p 3213328
time step continuity errors : sum local = 4.04261e-08, global = -1.46327e-20, cumulative = 3.1669e-20
DICPCG:  Solving for p, Initial residual = 0.306621, Final residual = 9.747e-05, No Iterations 112
linear solve p 1708168
time step continuity errors : sum local = 5.01969e-08, global = 1.29871e-21, cumulative = 3.29677e-20
ExecutionTime = 47.93 s  ClockTime = 48 s

Time = 0.009

Courant Number mean: 0.124912 max: 0.853929
DILUPBiCGStab:  Solving for Ux, Initial residual = 0.00861886, Final residual = 6.84784e-05, No Iterations 5
DILUPBiCGStab:  Solving for Uy, Initial residual = 0.0226744, Final residual = 0.000134967, No Iterations 5
DILUPBiCGStab:  Solving for Uz, Initial residual = 0.089843, Final residual = 0.00120026, No Iterations 5
linear solve U 561103
DICPCG:  Solving for p, Initial residual = 0.307449, Final residual = 9.77982e-05, No Iterations 209
linear solve p 3169072
time step continuity errors : sum local = 3.78417e-08, global = -7.75715e-21, cumulative = 2.52106e-20
DICPCG:  Solving for p, Initial residual = 0.266101, Final residual = 8.59936e-05, No Iterations 209
linear solve p 3168190
time step continuity errors : sum local = 3.33014e-08, global = 7.19768e-21, cumulative = 3.24083e-20
ExecutionTime = 55.17 s  ClockTime = 55 s

Time = 0.01

Courant Number mean: 0.129096 max: 0.856125
DILUPBiCGStab:  Solving for Ux, Initial residual = 0.0068848, Final residual = 4.82071e-05, No Iterations 5
DILUPBiCGStab:  Solving for Uy, Initial residual = 0.0198901, Final residual = 0.000120398, No Iterations 5
DILUPBiCGStab:  Solving for Uz, Initial residual = 0.0739325, Final residual = 0.000872407, No Iterations 5
linear solve U 560757
DICPCG:  Solving for p, Initial residual = 0.241171, Final residual = 9.94519e-05, No Iterations 208
linear solve p 3155086
time step continuity errors : sum local = 3.73503e-08, global = 1.40729e-20, cumulative = 4.64811e-20
DICPCG:  Solving for p, Initial residual = 0.208136, Final residual = 8.77863e-05, No Iterations 208
linear solve p 3148770
time step continuity errors : sum local = 3.28655e-08, global = -9.31322e-21, cumulative = 3.71679e-20
ExecutionTime = 62.36 s  ClockTime = 63 s

End

