/*---------------------------------------------------------------------------*\
  =========                 |
  \\      /  F ield         | OpenFOAM: The Open Source CFD Toolbox
   \\    /   O peration     | Website:  https://openfoam.org
    \\  /    A nd           | Version:  8
     \\/     M anipulation  |
\*---------------------------------------------------------------------------*/
Build  : 8-14d69e1ee166
Exec   : icoFoam
Date   : Jul 28 2021
Time   : 18:15:02
Host   : "guyot.icl.utk.edu"
PID    : 244398
I/O    : uncollated
Case   : /home/greole/code/OBR/lidDrivenCavity3D/Variation_mesh/75/Variation_matrix_solver/CG_NoPrecond_Serial/base
nProcs : 1
sigFpe : Enabling floating point exception trapping (FOAM_SIGFPE).
fileModificationChecking : Monitoring run-time modified files using timeStampMaster (fileModificationSkew 10)
allowSystemOperations : Allowing user-supplied system call operations

// * * * * * * * * * * * * * * * * * * * * * * * * * * * * * * * * * * * * * //
Create time

Create mesh for time = 0

Reading transportProperties

Reading field p

Reading field U

Reading/calculating face flux field phi


Starting time loop

Time = 0.001

Courant Number mean: 0 max: 0
DILUPBiCGStab:  Solving for Ux, Initial residual = 1, Final residual = 0.00209367, No Iterations 5
DILUPBiCGStab:  Solving for Uy:  solution singularity
DILUPBiCGStab:  Solving for Uz:  solution singularity
linear solve U 159772
nonePCG:  Solving for p, Initial residual = 1, Final residual = 9.50512e-05, No Iterations 590
linear solve p 2623595
time step continuity errors : sum local = 5.5873e-08, global = 1.24778e-21, cumulative = 1.24778e-21
nonePCG:  Solving for p, Initial residual = 0.735625, Final residual = 9.95828e-05, No Iterations 582
linear solve p 2583296
time step continuity errors : sum local = 7.69275e-08, global = -4.34803e-21, cumulative = -3.10026e-21
ExecutionTime = 7.32 s  ClockTime = 7 s

Time = 0.002

Courant Number mean: 0.0422934 max: 0.566001
DILUPBiCGStab:  Solving for Ux, Initial residual = 0.148658, Final residual = 0.000720406, No Iterations 5
DILUPBiCGStab:  Solving for Uy, Initial residual = 0.373403, Final residual = 0.00156877, No Iterations 5
DILUPBiCGStab:  Solving for Uz, Initial residual = 0.986175, Final residual = 0.00479651, No Iterations 5
linear solve U 316952
nonePCG:  Solving for p, Initial residual = 0.699707, Final residual = 9.30146e-05, No Iterations 579
linear solve p 2572152
time step continuity errors : sum local = 8.16319e-08, global = 8.40653e-21, cumulative = 5.30628e-21
nonePCG:  Solving for p, Initial residual = 0.630582, Final residual = 9.9304e-05, No Iterations 577
linear solve p 2548685
time step continuity errors : sum local = 8.90445e-08, global = -1.26264e-20, cumulative = -7.32013e-21
ExecutionTime = 12.94 s  ClockTime = 13 s

Time = 0.003

Courant Number mean: 0.063525 max: 0.668455
DILUPBiCGStab:  Solving for Ux, Initial residual = 0.0539127, Final residual = 0.00021387, No Iterations 5
DILUPBiCGStab:  Solving for Uy, Initial residual = 0.130267, Final residual = 0.000491833, No Iterations 5
DILUPBiCGStab:  Solving for Uz, Initial residual = 0.610802, Final residual = 0.00275554, No Iterations 5
linear solve U 312626
nonePCG:  Solving for p, Initial residual = 0.658936, Final residual = 9.89485e-05, No Iterations 574
linear solve p 2547931
time step continuity errors : sum local = 6.47228e-08, global = 1.53832e-21, cumulative = -5.78181e-21
nonePCG:  Solving for p, Initial residual = 0.614197, Final residual = 9.63794e-05, No Iterations 573
linear solve p 2531436
time step continuity errors : sum local = 6.11912e-08, global = 2.99348e-21, cumulative = -2.78833e-21
ExecutionTime = 18.51 s  ClockTime = 19 s

Time = 0.004

Courant Number mean: 0.0745209 max: 0.679252
DILUPBiCGStab:  Solving for Ux, Initial residual = 0.0288358, Final residual = 0.000105402, No Iterations 5
DILUPBiCGStab:  Solving for Uy, Initial residual = 0.0884884, Final residual = 0.000296706, No Iterations 5
DILUPBiCGStab:  Solving for Uz, Initial residual = 0.323374, Final residual = 0.00117324, No Iterations 5
linear solve U 313096
nonePCG:  Solving for p, Initial residual = 0.457335, Final residual = 9.29784e-05, No Iterations 567
linear solve p 2519487
time step continuity errors : sum local = 5.19141e-08, global = 8.35178e-21, cumulative = 5.56345e-21
nonePCG:  Solving for p, Initial residual = 0.393546, Final residual = 9.75692e-05, No Iterations 564
linear solve p 2491748
time step continuity errors : sum local = 5.51642e-08, global = 1.07441e-21, cumulative = 6.63786e-21
ExecutionTime = 24.01 s  ClockTime = 24 s

Time = 0.005

Courant Number mean: 0.0833976 max: 0.689389
DILUPBiCGStab:  Solving for Ux, Initial residual = 0.0210205, Final residual = 6.37532e-05, No Iterations 5
DILUPBiCGStab:  Solving for Uy, Initial residual = 0.0480496, Final residual = 0.000107439, No Iterations 5
DILUPBiCGStab:  Solving for Uz, Initial residual = 0.123557, Final residual = 0.000600098, No Iterations 5
linear solve U 315590
nonePCG:  Solving for p, Initial residual = 0.373652, Final residual = 9.98257e-05, No Iterations 557
linear solve p 2477922
time step continuity errors : sum local = 4.48805e-08, global = 1.71696e-20, cumulative = 2.38075e-20
nonePCG:  Solving for p, Initial residual = 0.32482, Final residual = 9.96913e-05, No Iterations 272
linear solve p 1208122
time step continuity errors : sum local = 5.31427e-08, global = -6.60102e-21, cumulative = 1.72065e-20
ExecutionTime = 28.19 s  ClockTime = 28 s

Time = 0.006

Courant Number mean: 0.0901387 max: 0.695124
DILUPBiCGStab:  Solving for Ux, Initial residual = 0.0146175, Final residual = 3.89186e-05, No Iterations 5
DILUPBiCGStab:  Solving for Uy, Initial residual = 0.03791, Final residual = 8.07073e-05, No Iterations 5
DILUPBiCGStab:  Solving for Uz, Initial residual = 0.104053, Final residual = 0.000387391, No Iterations 5
linear solve U 316575
nonePCG:  Solving for p, Initial residual = 0.240578, Final residual = 9.59982e-05, No Iterations 543
linear solve p 2414565
time step continuity errors : sum local = 4.17393e-08, global = -4.24641e-21, cumulative = 1.29601e-20
nonePCG:  Solving for p, Initial residual = 0.202265, Final residual = 9.73549e-05, No Iterations 540
linear solve p 2389846
time step continuity errors : sum local = 4.24099e-08, global = -2.09236e-20, cumulative = -7.96353e-21
ExecutionTime = 33.49 s  ClockTime = 34 s

Time = 0.007

Courant Number mean: 0.0957224 max: 0.698933
DILUPBiCGStab:  Solving for Ux, Initial residual = 0.0118099, Final residual = 2.49172e-05, No Iterations 5
DILUPBiCGStab:  Solving for Uy, Initial residual = 0.0277737, Final residual = 4.65214e-05, No Iterations 5
DILUPBiCGStab:  Solving for Uz, Initial residual = 0.0569452, Final residual = 0.000137757, No Iterations 5
linear solve U 314888
nonePCG:  Solving for p, Initial residual = 0.179923, Final residual = 9.85357e-05, No Iterations 536
linear solve p 2384615
time step continuity errors : sum local = 3.97559e-08, global = -1.94405e-20, cumulative = -2.74041e-20
nonePCG:  Solving for p, Initial residual = 0.151907, Final residual = 9.88667e-05, No Iterations 535
linear solve p 2368756
time step continuity errors : sum local = 3.9847e-08, global = 4.57277e-21, cumulative = -2.28313e-20
ExecutionTime = 38.74 s  ClockTime = 39 s

Time = 0.008

Courant Number mean: 0.100393 max: 0.702023
DILUPBiCGStab:  Solving for Ux, Initial residual = 0.00946332, Final residual = 1.82618e-05, No Iterations 5
DILUPBiCGStab:  Solving for Uy, Initial residual = 0.022967, Final residual = 3.19296e-05, No Iterations 5
DILUPBiCGStab:  Solving for Uz, Initial residual = 0.0498736, Final residual = 0.000136064, No Iterations 5
linear solve U 314282
nonePCG:  Solving for p, Initial residual = 0.120692, Final residual = 9.82902e-05, No Iterations 249
linear solve p 1114057
time step continuity errors : sum local = 4.02037e-08, global = -3.41714e-21, cumulative = -2.62484e-20
nonePCG:  Solving for p, Initial residual = 0.10028, Final residual = 9.55406e-05, No Iterations 247
linear solve p 1098040
time step continuity errors : sum local = 3.78245e-08, global = 1.37322e-20, cumulative = -1.25163e-20
ExecutionTime = 41.44 s  ClockTime = 42 s

Time = 0.009

Courant Number mean: 0.104394 max: 0.704235
DILUPBiCGStab:  Solving for Ux, Initial residual = 0.00790752, Final residual = 1.11908e-05, No Iterations 5
DILUPBiCGStab:  Solving for Uy, Initial residual = 0.0190011, Final residual = 2.60004e-05, No Iterations 5
DILUPBiCGStab:  Solving for Uz, Initial residual = 0.036673, Final residual = 7.75286e-05, No Iterations 5
linear solve U 314470
nonePCG:  Solving for p, Initial residual = 0.0894564, Final residual = 9.81833e-05, No Iterations 242
linear solve p 1079839
time step continuity errors : sum local = 4.06204e-08, global = 8.30635e-21, cumulative = -4.20992e-21
nonePCG:  Solving for p, Initial residual = 0.0748041, Final residual = 9.70987e-05, No Iterations 240
linear solve p 1065468
time step continuity errors : sum local = 3.81993e-08, global = -1.17308e-21, cumulative = -5.383e-21
ExecutionTime = 44.08 s  ClockTime = 44 s

Time = 0.01

Courant Number mean: 0.107876 max: 0.706142
DILUPBiCGStab:  Solving for Ux, Initial residual = 0.00674639, Final residual = 8.85237e-06, No Iterations 5
DILUPBiCGStab:  Solving for Uy, Initial residual = 0.0162419, Final residual = 1.41448e-05, No Iterations 5
DILUPBiCGStab:  Solving for Uz, Initial residual = 0.0326902, Final residual = 6.02174e-05, No Iterations 5
linear solve U 314360
nonePCG:  Solving for p, Initial residual = 0.0617523, Final residual = 9.57844e-05, No Iterations 237
linear solve p 1057462
time step continuity errors : sum local = 3.68363e-08, global = 5.34571e-21, cumulative = -3.72911e-23
nonePCG:  Solving for p, Initial residual = 0.0513722, Final residual = 9.54636e-05, No Iterations 235
linear solve p 1043970
time step continuity errors : sum local = 3.64909e-08, global = 9.51477e-21, cumulative = 9.47748e-21
ExecutionTime = 46.68 s  ClockTime = 47 s

End

