/*---------------------------------------------------------------------------*\
  =========                 |
  \\      /  F ield         | OpenFOAM: The Open Source CFD Toolbox
   \\    /   O peration     | Website:  https://openfoam.org
    \\  /    A nd           | Version:  8
     \\/     M anipulation  |
\*---------------------------------------------------------------------------*/
Build  : 8-ef60d22ea792
Exec   : icoFoam
Date   : Jul 29 2021
Time   : 02:43:27
Host   : "uc2n489.localdomain"
PID    : 3410098
I/O    : uncollated
Case   : /pfs/data5/home/kit/scc/nq7776/code/OBR/lidDrivenCavity3D/Variation_mesh/75/Variation_matrix_solver/CG_NoPrecond_CUDA/base
nProcs : 1
sigFpe : Enabling floating point exception trapping (FOAM_SIGFPE).
fileModificationChecking : Monitoring run-time modified files using timeStampMaster (fileModificationSkew 10)
allowSystemOperations : Allowing user-supplied system call operations

// * * * * * * * * * * * * * * * * * * * * * * * * * * * * * * * * * * * * * //
Create time

Create mesh for time = 0

Reading transportProperties

Reading field p

Reading field U

Reading/calculating face flux field phi


Starting time loop

Time = 0.001

Courant Number mean: 0 max: 0
DILUPBiCGStab:  Solving for Ux, Initial residual = 1, Final residual = 0.00209367, No Iterations 5
DILUPBiCGStab:  Solving for Uy:  solution singularity
DILUPBiCGStab:  Solving for Uz:  solution singularity
linear solve U 207029
[OGL LOG] init_host_sparsity_pattern : 119 ms
[OGL LOG] matrix not stored update host matrix
[OGL LOG] update_host_mtx : 62 ms
[OGL LOG] matrix is not yet sorted, compute sorting idxs
[OGL LOG] compute_sort : 3658 ms
[OGL LOG] matrix is not yet sorted, sorting host matrix
[OGL LOG] sort_host_mtx_sparsity_pattern : 84 ms
[OGL LOG] sort_host_mtx : 48 ms
[OGL LOG] init_preconditioner : 0 ms
[OGL LOG] solve : 364 ms
nonecudaGKOCG:  Solving for p, Initial residual = 1, Final residual = 9.962e-05, No Iterations 589
linear solve p 5106441
time step continuity errors : sum local = 5.85583e-08, global = 6.492e-21, cumulative = 6.492e-21
[OGL LOG] init_host_sparsity_pattern : 114 ms
[OGL LOG] matrix not stored update host matrix
[OGL LOG] update_host_mtx : 62 ms
[OGL LOG] matrix is not yet sorted, sorting host matrix
[OGL LOG] sort_host_mtx_sparsity_pattern : 86 ms
[OGL LOG] sort_host_mtx : 43 ms
[OGL LOG] init_preconditioner : 0 ms
[OGL LOG] solve : 370 ms
nonecudaGKOCG:  Solving for p, Initial residual = 0.735623, Final residual = 9.90599e-05, No Iterations 582
linear solve p 703186
time step continuity errors : sum local = 7.65239e-08, global = -2.65344e-21, cumulative = 3.83856e-21
ExecutionTime = 7.79 s  ClockTime = 8 s

Time = 0.002

Courant Number mean: 0.0422934 max: 0.566001
DILUPBiCGStab:  Solving for Ux, Initial residual = 0.148658, Final residual = 0.000720406, No Iterations 5
DILUPBiCGStab:  Solving for Uy, Initial residual = 0.373403, Final residual = 0.00156877, No Iterations 5
DILUPBiCGStab:  Solving for Uz, Initial residual = 0.986174, Final residual = 0.00479651, No Iterations 5
linear solve U 409785
[OGL LOG] init_host_sparsity_pattern : 112 ms
[OGL LOG] matrix not stored update host matrix
[OGL LOG] update_host_mtx : 56 ms
[OGL LOG] matrix is not yet sorted, sorting host matrix
[OGL LOG] sort_host_mtx_sparsity_pattern : 81 ms
[OGL LOG] sort_host_mtx : 43 ms
[OGL LOG] init_preconditioner : 0 ms
[OGL LOG] solve : 370 ms
nonecudaGKOCG:  Solving for p, Initial residual = 0.69971, Final residual = 9.19265e-05, No Iterations 579
linear solve p 689053
time step continuity errors : sum local = 8.06777e-08, global = 1.29763e-20, cumulative = 1.68149e-20
[OGL LOG] init_host_sparsity_pattern : 111 ms
[OGL LOG] matrix not stored update host matrix
[OGL LOG] update_host_mtx : 54 ms
[OGL LOG] matrix is not yet sorted, sorting host matrix
[OGL LOG] sort_host_mtx_sparsity_pattern : 79 ms
[OGL LOG] sort_host_mtx : 43 ms
[OGL LOG] init_preconditioner : 0 ms
[OGL LOG] solve : 363 ms
nonecudaGKOCG:  Solving for p, Initial residual = 0.630585, Final residual = 9.8718e-05, No Iterations 577
linear solve p 677513
time step continuity errors : sum local = 8.85198e-08, global = 1.00644e-20, cumulative = 2.68793e-20
ExecutionTime = 9.81 s  ClockTime = 10 s

Time = 0.003

Courant Number mean: 0.063525 max: 0.668455
DILUPBiCGStab:  Solving for Ux, Initial residual = 0.0539128, Final residual = 0.00021387, No Iterations 5
DILUPBiCGStab:  Solving for Uy, Initial residual = 0.130267, Final residual = 0.000491834, No Iterations 5
DILUPBiCGStab:  Solving for Uz, Initial residual = 0.610809, Final residual = 0.00275554, No Iterations 5
linear solve U 408922
[OGL LOG] init_host_sparsity_pattern : 112 ms
[OGL LOG] matrix not stored update host matrix
[OGL LOG] update_host_mtx : 54 ms
[OGL LOG] matrix is not yet sorted, sorting host matrix
[OGL LOG] sort_host_mtx_sparsity_pattern : 79 ms
[OGL LOG] sort_host_mtx : 43 ms
[OGL LOG] init_preconditioner : 0 ms
[OGL LOG] solve : 361 ms
nonecudaGKOCG:  Solving for p, Initial residual = 0.658939, Final residual = 9.84147e-05, No Iterations 574
linear solve p 675841
time step continuity errors : sum local = 6.4374e-08, global = -5.21154e-22, cumulative = 2.63581e-20
[OGL LOG] init_host_sparsity_pattern : 111 ms
[OGL LOG] matrix not stored update host matrix
[OGL LOG] update_host_mtx : 54 ms
[OGL LOG] matrix is not yet sorted, sorting host matrix
[OGL LOG] sort_host_mtx_sparsity_pattern : 78 ms
[OGL LOG] sort_host_mtx : 43 ms
[OGL LOG] init_preconditioner : 0 ms
[OGL LOG] solve : 364 ms
nonecudaGKOCG:  Solving for p, Initial residual = 0.6142, Final residual = 9.70837e-05, No Iterations 573
linear solve p 678964
time step continuity errors : sum local = 6.16387e-08, global = 1.29975e-20, cumulative = 3.93556e-20
ExecutionTime = 11.83 s  ClockTime = 12 s

Time = 0.004

Courant Number mean: 0.0745209 max: 0.679252
DILUPBiCGStab:  Solving for Ux, Initial residual = 0.0288358, Final residual = 0.000105402, No Iterations 5
DILUPBiCGStab:  Solving for Uy, Initial residual = 0.0884884, Final residual = 0.000296706, No Iterations 5
DILUPBiCGStab:  Solving for Uz, Initial residual = 0.323376, Final residual = 0.00117324, No Iterations 5
linear solve U 399690
[OGL LOG] init_host_sparsity_pattern : 111 ms
[OGL LOG] matrix not stored update host matrix
[OGL LOG] update_host_mtx : 58 ms
[OGL LOG] matrix is not yet sorted, sorting host matrix
[OGL LOG] sort_host_mtx_sparsity_pattern : 83 ms
[OGL LOG] sort_host_mtx : 43 ms
[OGL LOG] init_preconditioner : 0 ms
[OGL LOG] solve : 359 ms
nonecudaGKOCG:  Solving for p, Initial residual = 0.457336, Final residual = 9.30809e-05, No Iterations 567
linear solve p 680770
time step continuity errors : sum local = 5.19715e-08, global = -6.36066e-21, cumulative = 3.2995e-20
[OGL LOG] init_host_sparsity_pattern : 117 ms
[OGL LOG] matrix not stored update host matrix
[OGL LOG] update_host_mtx : 56 ms
[OGL LOG] matrix is not yet sorted, sorting host matrix
[OGL LOG] sort_host_mtx_sparsity_pattern : 82 ms
[OGL LOG] sort_host_mtx : 43 ms
[OGL LOG] init_preconditioner : 0 ms
[OGL LOG] solve : 355 ms
nonecudaGKOCG:  Solving for p, Initial residual = 0.393547, Final residual = 9.72993e-05, No Iterations 564
linear solve p 683239
time step continuity errors : sum local = 5.50118e-08, global = -8.57054e-21, cumulative = 2.44244e-20
ExecutionTime = 13.84 s  ClockTime = 14 s

Time = 0.005

Courant Number mean: 0.0833976 max: 0.689389
DILUPBiCGStab:  Solving for Ux, Initial residual = 0.0210205, Final residual = 6.37533e-05, No Iterations 5
DILUPBiCGStab:  Solving for Uy, Initial residual = 0.0480496, Final residual = 0.00010744, No Iterations 5
DILUPBiCGStab:  Solving for Uz, Initial residual = 0.123557, Final residual = 0.000600093, No Iterations 5
linear solve U 407509
[OGL LOG] init_host_sparsity_pattern : 111 ms
[OGL LOG] matrix not stored update host matrix
[OGL LOG] update_host_mtx : 54 ms
[OGL LOG] matrix is not yet sorted, sorting host matrix
[OGL LOG] sort_host_mtx_sparsity_pattern : 79 ms
[OGL LOG] sort_host_mtx : 43 ms
[OGL LOG] init_preconditioner : 0 ms
[OGL LOG] solve : 352 ms
nonecudaGKOCG:  Solving for p, Initial residual = 0.373652, Final residual = 9.91181e-05, No Iterations 557
linear solve p 665461
time step continuity errors : sum local = 4.45624e-08, global = -3.52332e-21, cumulative = 2.09011e-20
[OGL LOG] init_host_sparsity_pattern : 111 ms
[OGL LOG] matrix not stored update host matrix
[OGL LOG] update_host_mtx : 54 ms
[OGL LOG] matrix is not yet sorted, sorting host matrix
[OGL LOG] sort_host_mtx_sparsity_pattern : 78 ms
[OGL LOG] sort_host_mtx : 43 ms
[OGL LOG] init_preconditioner : 0 ms
[OGL LOG] solve : 173 ms
nonecudaGKOCG:  Solving for p, Initial residual = 0.32482, Final residual = 9.96619e-05, No Iterations 272
linear solve p 486890
time step continuity errors : sum local = 5.31295e-08, global = -5.50376e-21, cumulative = 1.53973e-20
ExecutionTime = 15.65 s  ClockTime = 16 s

Time = 0.006

Courant Number mean: 0.0901387 max: 0.695124
DILUPBiCGStab:  Solving for Ux, Initial residual = 0.0146175, Final residual = 3.89186e-05, No Iterations 5
DILUPBiCGStab:  Solving for Uy, Initial residual = 0.03791, Final residual = 8.07073e-05, No Iterations 5
DILUPBiCGStab:  Solving for Uz, Initial residual = 0.104053, Final residual = 0.000387391, No Iterations 5
linear solve U 402528
[OGL LOG] init_host_sparsity_pattern : 111 ms
[OGL LOG] matrix not stored update host matrix
[OGL LOG] update_host_mtx : 54 ms
[OGL LOG] matrix is not yet sorted, sorting host matrix
[OGL LOG] sort_host_mtx_sparsity_pattern : 83 ms
[OGL LOG] sort_host_mtx : 43 ms
[OGL LOG] init_preconditioner : 0 ms
[OGL LOG] solve : 342 ms
nonecudaGKOCG:  Solving for p, Initial residual = 0.240577, Final residual = 9.99627e-05, No Iterations 542
linear solve p 662961
time step continuity errors : sum local = 4.34628e-08, global = -9.6646e-23, cumulative = 1.53007e-20
[OGL LOG] init_host_sparsity_pattern : 111 ms
[OGL LOG] matrix not stored update host matrix
[OGL LOG] update_host_mtx : 54 ms
[OGL LOG] matrix is not yet sorted, sorting host matrix
[OGL LOG] sort_host_mtx_sparsity_pattern : 78 ms
[OGL LOG] sort_host_mtx : 43 ms
[OGL LOG] init_preconditioner : 0 ms
[OGL LOG] solve : 343 ms
nonecudaGKOCG:  Solving for p, Initial residual = 0.202265, Final residual = 9.80866e-05, No Iterations 540
linear solve p 656776
time step continuity errors : sum local = 4.27292e-08, global = -1.54344e-20, cumulative = -1.33687e-22
ExecutionTime = 17.62 s  ClockTime = 18 s

Time = 0.007

Courant Number mean: 0.0957224 max: 0.698933
DILUPBiCGStab:  Solving for Ux, Initial residual = 0.0118099, Final residual = 2.49171e-05, No Iterations 5
DILUPBiCGStab:  Solving for Uy, Initial residual = 0.0277737, Final residual = 4.65212e-05, No Iterations 5
DILUPBiCGStab:  Solving for Uz, Initial residual = 0.0569395, Final residual = 0.000137751, No Iterations 5
linear solve U 406378
[OGL LOG] init_host_sparsity_pattern : 111 ms
[OGL LOG] matrix not stored update host matrix
[OGL LOG] update_host_mtx : 58 ms
[OGL LOG] matrix is not yet sorted, sorting host matrix
[OGL LOG] sort_host_mtx_sparsity_pattern : 83 ms
[OGL LOG] sort_host_mtx : 43 ms
[OGL LOG] init_preconditioner : 0 ms
[OGL LOG] solve : 338 ms
nonecudaGKOCG:  Solving for p, Initial residual = 0.17993, Final residual = 8.95623e-05, No Iterations 537
linear solve p 661259
time step continuity errors : sum local = 3.61369e-08, global = 1.2182e-20, cumulative = 1.20483e-20
[OGL LOG] init_host_sparsity_pattern : 112 ms
[OGL LOG] matrix not stored update host matrix
[OGL LOG] update_host_mtx : 54 ms
[OGL LOG] matrix is not yet sorted, sorting host matrix
[OGL LOG] sort_host_mtx_sparsity_pattern : 78 ms
[OGL LOG] sort_host_mtx : 43 ms
[OGL LOG] init_preconditioner : 0 ms
[OGL LOG] solve : 337 ms
nonecudaGKOCG:  Solving for p, Initial residual = 0.151912, Final residual = 9.98955e-05, No Iterations 534
linear solve p 651417
time step continuity errors : sum local = 4.02617e-08, global = -3.89833e-21, cumulative = 8.15002e-21
ExecutionTime = 19.58 s  ClockTime = 20 s

Time = 0.008

Courant Number mean: 0.100393 max: 0.702023
DILUPBiCGStab:  Solving for Ux, Initial residual = 0.00946333, Final residual = 1.82618e-05, No Iterations 5
DILUPBiCGStab:  Solving for Uy, Initial residual = 0.022967, Final residual = 3.19292e-05, No Iterations 5
DILUPBiCGStab:  Solving for Uz, Initial residual = 0.0498788, Final residual = 0.00013608, No Iterations 5
linear solve U 417812
[OGL LOG] init_host_sparsity_pattern : 112 ms
[OGL LOG] matrix not stored update host matrix
[OGL LOG] update_host_mtx : 54 ms
[OGL LOG] matrix is not yet sorted, sorting host matrix
[OGL LOG] sort_host_mtx_sparsity_pattern : 81 ms
[OGL LOG] sort_host_mtx : 43 ms
[OGL LOG] init_preconditioner : 0 ms
[OGL LOG] solve : 158 ms
nonecudaGKOCG:  Solving for p, Initial residual = 0.12069, Final residual = 9.76338e-05, No Iterations 249
linear solve p 475604
time step continuity errors : sum local = 3.99464e-08, global = -1.34584e-20, cumulative = -5.30836e-21
[OGL LOG] init_host_sparsity_pattern : 111 ms
[OGL LOG] matrix not stored update host matrix
[OGL LOG] update_host_mtx : 54 ms
[OGL LOG] matrix is not yet sorted, sorting host matrix
[OGL LOG] sort_host_mtx_sparsity_pattern : 78 ms
[OGL LOG] sort_host_mtx : 43 ms
[OGL LOG] init_preconditioner : 0 ms
[OGL LOG] solve : 158 ms
nonecudaGKOCG:  Solving for p, Initial residual = 0.100279, Final residual = 9.64606e-05, No Iterations 247
linear solve p 472664
time step continuity errors : sum local = 3.81873e-08, global = 6.23373e-21, cumulative = 9.25376e-22
ExecutionTime = 21.2 s  ClockTime = 21 s

Time = 0.009

Courant Number mean: 0.104394 max: 0.704235
DILUPBiCGStab:  Solving for Ux, Initial residual = 0.00790751, Final residual = 1.11908e-05, No Iterations 5
DILUPBiCGStab:  Solving for Uy, Initial residual = 0.0190011, Final residual = 2.60003e-05, No Iterations 5
DILUPBiCGStab:  Solving for Uz, Initial residual = 0.0366737, Final residual = 7.75289e-05, No Iterations 5
linear solve U 403163
[OGL LOG] init_host_sparsity_pattern : 112 ms
[OGL LOG] matrix not stored update host matrix
[OGL LOG] update_host_mtx : 57 ms
[OGL LOG] matrix is not yet sorted, sorting host matrix
[OGL LOG] sort_host_mtx_sparsity_pattern : 78 ms
[OGL LOG] sort_host_mtx : 43 ms
[OGL LOG] init_preconditioner : 0 ms
[OGL LOG] solve : 155 ms
nonecudaGKOCG:  Solving for p, Initial residual = 0.0894559, Final residual = 9.86877e-05, No Iterations 242
linear solve p 470827
time step continuity errors : sum local = 4.0813e-08, global = 1.19224e-20, cumulative = 1.28478e-20
[OGL LOG] init_host_sparsity_pattern : 112 ms
[OGL LOG] matrix not stored update host matrix
[OGL LOG] update_host_mtx : 54 ms
[OGL LOG] matrix is not yet sorted, sorting host matrix
[OGL LOG] sort_host_mtx_sparsity_pattern : 78 ms
[OGL LOG] sort_host_mtx : 43 ms
[OGL LOG] init_preconditioner : 0 ms
[OGL LOG] solve : 153 ms
nonecudaGKOCG:  Solving for p, Initial residual = 0.074804, Final residual = 9.68688e-05, No Iterations 240
linear solve p 467824
time step continuity errors : sum local = 3.81099e-08, global = -7.31382e-21, cumulative = 5.53401e-21
ExecutionTime = 22.78 s  ClockTime = 23 s

Time = 0.01

Courant Number mean: 0.107876 max: 0.706142
DILUPBiCGStab:  Solving for Ux, Initial residual = 0.00674639, Final residual = 8.85236e-06, No Iterations 5
DILUPBiCGStab:  Solving for Uy, Initial residual = 0.0162419, Final residual = 1.41448e-05, No Iterations 5
DILUPBiCGStab:  Solving for Uz, Initial residual = 0.0326903, Final residual = 6.02183e-05, No Iterations 5
linear solve U 400179
[OGL LOG] init_host_sparsity_pattern : 111 ms
[OGL LOG] matrix not stored update host matrix
[OGL LOG] update_host_mtx : 54 ms
[OGL LOG] matrix is not yet sorted, sorting host matrix
[OGL LOG] sort_host_mtx_sparsity_pattern : 79 ms
[OGL LOG] sort_host_mtx : 43 ms
[OGL LOG] init_preconditioner : 0 ms
[OGL LOG] solve : 151 ms
nonecudaGKOCG:  Solving for p, Initial residual = 0.0617518, Final residual = 9.57547e-05, No Iterations 237
linear solve p 465026
time step continuity errors : sum local = 3.68278e-08, global = -2.91549e-21, cumulative = 2.61852e-21
[OGL LOG] init_host_sparsity_pattern : 114 ms
[OGL LOG] matrix not stored update host matrix
[OGL LOG] update_host_mtx : 54 ms
[OGL LOG] matrix is not yet sorted, sorting host matrix
[OGL LOG] sort_host_mtx_sparsity_pattern : 78 ms
[OGL LOG] sort_host_mtx : 43 ms
[OGL LOG] init_preconditioner : 0 ms
[OGL LOG] solve : 150 ms
nonecudaGKOCG:  Solving for p, Initial residual = 0.0513719, Final residual = 9.55286e-05, No Iterations 235
linear solve p 466036
time step continuity errors : sum local = 3.65165e-08, global = 1.79848e-20, cumulative = 2.06033e-20
ExecutionTime = 24.36 s  ClockTime = 25 s

End

