/*---------------------------------------------------------------------------*\
  =========                 |
  \\      /  F ield         | OpenFOAM: The Open Source CFD Toolbox
   \\    /   O peration     | Website:  https://openfoam.org
    \\  /    A nd           | Version:  8
     \\/     M anipulation  |
\*---------------------------------------------------------------------------*/
Build  : 8-40a5a48f630f
Exec   : icoFoam
Date   : Jul 28 2021
Time   : 13:14:32
Host   : "uc2n449.localdomain"
PID    : 1429759
I/O    : uncollated
Case   : /pfs/data5/home/kit/scc/nq7776/code/OBR/lidDrivenCavity3D/Variation_mesh/95/Variation_matrix_solver/BiCGStab_BJ_OMP/base
nProcs : 1
sigFpe : Enabling floating point exception trapping (FOAM_SIGFPE).
fileModificationChecking : Monitoring run-time modified files using timeStampMaster (fileModificationSkew 10)
allowSystemOperations : Allowing user-supplied system call operations

// * * * * * * * * * * * * * * * * * * * * * * * * * * * * * * * * * * * * * //
Create time

Create mesh for time = 0

Reading transportProperties

Reading field p

Reading field U

Reading/calculating face flux field phi


Starting time loop

Time = 0.001

Courant Number mean: 0 max: 0
nonePBiCGStab:  Solving for Ux, Initial residual = 1, Final residual = 0.078913, No Iterations 5
nonePBiCGStab:  Solving for Uy, Initial residual = 0, Final residual = 0, No Iterations 0
nonePBiCGStab:  Solving for Uz, Initial residual = 0, Final residual = 0, No Iterations 0
linear solve U 223
[OGL LOG] init_host_sparsity_pattern : 244 ms
[OGL LOG] matrix not stored update host matrix
[OGL LOG] update_host_mtx : 126 ms
[OGL LOG] matrix is not yet sorted, compute sorting idxs
[OGL LOG] compute_sort : 7728 ms
[OGL LOG] matrix is not yet sorted, sorting host matrix
[OGL LOG] sort_host_mtx_sparsity_pattern : 178 ms
[OGL LOG] sort_host_mtx : 106 ms
[OGL LOG] init_preconditioner : 32 ms
[OGL LOG] solve : 13696 ms
BJompGKOBiCGStab:  Solving for p, Initial residual = 1, Final residual = 4.40531e-05, No Iterations 535
linear solve p 22319
time step continuity errors : sum local = 2.66932e-06, global = 7.14948e-21, cumulative = 7.14948e-21
[OGL LOG] init_host_sparsity_pattern : 246 ms
[OGL LOG] matrix not stored update host matrix
[OGL LOG] update_host_mtx : 126 ms
[OGL LOG] matrix is not yet sorted, sorting host matrix
[OGL LOG] sort_host_mtx_sparsity_pattern : 183 ms
[OGL LOG] sort_host_mtx : 106 ms
[OGL LOG] init_preconditioner : 0 ms
[OGL LOG] solve : 13105 ms
BJompGKOBiCGStab:  Solving for p, Initial residual = 0.704438, Final residual = 6.06423e-05, No Iterations 505
linear solve p 13915
time step continuity errors : sum local = 0.000878871, global = -1.7903e-19, cumulative = -1.71881e-19
ExecutionTime = 1079.6 s  ClockTime = 40 s

Time = 0.002

Courant Number mean: 0.0417238 max: 6.73295
nonePBiCGStab:  Solving for Ux, Initial residual = 0.142405, Final residual = 0.0429525, No Iterations 5
nonePBiCGStab:  Solving for Uy, Initial residual = 0.440543, Final residual = 0.17521, No Iterations 5
nonePBiCGStab:  Solving for Uz, Initial residual = 0.544481, Final residual = 0.248097, No Iterations 5
linear solve U 452
[OGL LOG] init_host_sparsity_pattern : 233 ms
[OGL LOG] matrix not stored update host matrix
[OGL LOG] update_host_mtx : 126 ms
[OGL LOG] matrix is not yet sorted, sorting host matrix
[OGL LOG] sort_host_mtx_sparsity_pattern : 187 ms
[OGL LOG] sort_host_mtx : 110 ms
[OGL LOG] init_preconditioner : 0 ms
[OGL LOG] solve : 13397 ms
BJompGKOBiCGStab:  Solving for p, Initial residual = 0.772958, Final residual = 7.04306e-05, No Iterations 529
linear solve p 14212
time step continuity errors : sum local = 1.67666e-07, global = -1.02953e-21, cumulative = -1.7291e-19
[OGL LOG] init_host_sparsity_pattern : 232 ms
[OGL LOG] matrix not stored update host matrix
[OGL LOG] update_host_mtx : 127 ms
[OGL LOG] matrix is not yet sorted, sorting host matrix
[OGL LOG] sort_host_mtx_sparsity_pattern : 185 ms
[OGL LOG] sort_host_mtx : 105 ms
[OGL LOG] init_preconditioner : 0 ms
[OGL LOG] solve : 12998 ms
BJompGKOBiCGStab:  Solving for p, Initial residual = 0.711792, Final residual = 9.40158e-05, No Iterations 493
linear solve p 13812
time step continuity errors : sum local = 2.6217e-07, global = -4.72206e-21, cumulative = -1.77632e-19
ExecutionTime = 2132.83 s  ClockTime = 69 s

Time = 0.003

Courant Number mean: 0.0613805 max: 0.840195
nonePBiCGStab:  Solving for Ux, Initial residual = 0.072062, Final residual = 0.0229806, No Iterations 5
nonePBiCGStab:  Solving for Uy, Initial residual = 0.250272, Final residual = 0.0823529, No Iterations 5
nonePBiCGStab:  Solving for Uz, Initial residual = 0.639173, Final residual = 0.127065, No Iterations 5
linear solve U 447
[OGL LOG] init_host_sparsity_pattern : 235 ms
[OGL LOG] matrix not stored update host matrix
[OGL LOG] update_host_mtx : 127 ms
[OGL LOG] matrix is not yet sorted, sorting host matrix
[OGL LOG] sort_host_mtx_sparsity_pattern : 184 ms
[OGL LOG] sort_host_mtx : 104 ms
[OGL LOG] init_preconditioner : 0 ms
[OGL LOG] solve : 11181 ms
BJompGKOBiCGStab:  Solving for p, Initial residual = 0.834635, Final residual = 9.71469e-05, No Iterations 413
linear solve p 11971
time step continuity errors : sum local = 1.43039e-07, global = 1.05835e-21, cumulative = -1.76574e-19
[OGL LOG] init_host_sparsity_pattern : 228 ms
[OGL LOG] matrix not stored update host matrix
[OGL LOG] update_host_mtx : 126 ms
[OGL LOG] matrix is not yet sorted, sorting host matrix
[OGL LOG] sort_host_mtx_sparsity_pattern : 177 ms
[OGL LOG] sort_host_mtx : 104 ms
[OGL LOG] init_preconditioner : 0 ms
[OGL LOG] solve : 11043 ms
BJompGKOBiCGStab:  Solving for p, Initial residual = 0.71962, Final residual = 9.96012e-05, No Iterations 410
linear solve p 11812
time step continuity errors : sum local = 5.21374e-07, global = 6.19407e-21, cumulative = -1.7038e-19
ExecutionTime = 3019.79 s  ClockTime = 94 s

Time = 0.004

Courant Number mean: 0.0733796 max: 0.859057
nonePBiCGStab:  Solving for Ux, Initial residual = 0.0472626, Final residual = 0.011369, No Iterations 5
nonePBiCGStab:  Solving for Uy, Initial residual = 0.173236, Final residual = 0.0519138, No Iterations 5
nonePBiCGStab:  Solving for Uz, Initial residual = 0.685035, Final residual = 0.109929, No Iterations 5
linear solve U 451
[OGL LOG] init_host_sparsity_pattern : 233 ms
[OGL LOG] matrix not stored update host matrix
[OGL LOG] update_host_mtx : 126 ms
[OGL LOG] matrix is not yet sorted, sorting host matrix
[OGL LOG] sort_host_mtx_sparsity_pattern : 183 ms
[OGL LOG] sort_host_mtx : 104 ms
[OGL LOG] init_preconditioner : 0 ms
[OGL LOG] solve : 10882 ms
BJompGKOBiCGStab:  Solving for p, Initial residual = 0.806788, Final residual = 8.8205e-05, No Iterations 400
linear solve p 11667
time step continuity errors : sum local = 1.18076e-07, global = -4.46191e-21, cumulative = -1.74842e-19
[OGL LOG] init_host_sparsity_pattern : 227 ms
[OGL LOG] matrix not stored update host matrix
[OGL LOG] update_host_mtx : 126 ms
[OGL LOG] matrix is not yet sorted, sorting host matrix
[OGL LOG] sort_host_mtx_sparsity_pattern : 177 ms
[OGL LOG] sort_host_mtx : 104 ms
[OGL LOG] init_preconditioner : 0 ms
[OGL LOG] solve : 11095 ms
BJompGKOBiCGStab:  Solving for p, Initial residual = 0.668802, Final residual = 8.38371e-05, No Iterations 404
linear solve p 11867
time step continuity errors : sum local = 2.11473e-06, global = -1.52272e-20, cumulative = -1.90069e-19
ExecutionTime = 3897.26 s  ClockTime = 119 s

Time = 0.005

Courant Number mean: 0.0850665 max: 0.874001
nonePBiCGStab:  Solving for Ux, Initial residual = 0.0354935, Final residual = 0.00850898, No Iterations 5
nonePBiCGStab:  Solving for Uy, Initial residual = 0.119165, Final residual = 0.0357483, No Iterations 5
nonePBiCGStab:  Solving for Uz, Initial residual = 0.587588, Final residual = 0.068646, No Iterations 5
linear solve U 454
[OGL LOG] init_host_sparsity_pattern : 232 ms
[OGL LOG] matrix not stored update host matrix
[OGL LOG] update_host_mtx : 125 ms
[OGL LOG] matrix is not yet sorted, sorting host matrix
[OGL LOG] sort_host_mtx_sparsity_pattern : 183 ms
[OGL LOG] sort_host_mtx : 103 ms
[OGL LOG] init_preconditioner : 0 ms
[OGL LOG] solve : 11535 ms
BJompGKOBiCGStab:  Solving for p, Initial residual = 0.832764, Final residual = 9.92606e-05, No Iterations 420
linear solve p 12321
time step continuity errors : sum local = 1.25976e-07, global = 8.09219e-21, cumulative = -1.81977e-19
[OGL LOG] init_host_sparsity_pattern : 226 ms
[OGL LOG] matrix not stored update host matrix
[OGL LOG] update_host_mtx : 126 ms
[OGL LOG] matrix is not yet sorted, sorting host matrix
[OGL LOG] sort_host_mtx_sparsity_pattern : 177 ms
[OGL LOG] sort_host_mtx : 104 ms
[OGL LOG] init_preconditioner : 0 ms
[OGL LOG] solve : 12144 ms
BJompGKOBiCGStab:  Solving for p, Initial residual = 0.700684, Final residual = 2.02387e-05, No Iterations 443
linear solve p 12910
time step continuity errors : sum local = 8.29909e-07, global = 9.58957e-21, cumulative = -1.72387e-19
ExecutionTime = 4842.82 s  ClockTime = 145 s

Time = 0.006

Courant Number mean: 0.094345 max: 0.882103
nonePBiCGStab:  Solving for Ux, Initial residual = 0.0281371, Final residual = 0.00666328, No Iterations 5
nonePBiCGStab:  Solving for Uy, Initial residual = 0.0974399, Final residual = 0.0267099, No Iterations 5
nonePBiCGStab:  Solving for Uz, Initial residual = 0.535651, Final residual = 0.0730524, No Iterations 5
linear solve U 445
[OGL LOG] init_host_sparsity_pattern : 233 ms
[OGL LOG] matrix not stored update host matrix
[OGL LOG] update_host_mtx : 126 ms
[OGL LOG] matrix is not yet sorted, sorting host matrix
[OGL LOG] sort_host_mtx_sparsity_pattern : 192 ms
[OGL LOG] sort_host_mtx : 104 ms
[OGL LOG] init_preconditioner : 0 ms
[OGL LOG] solve : 10324 ms
BJompGKOBiCGStab:  Solving for p, Initial residual = 0.802186, Final residual = 1.83067e-05, No Iterations 381
linear solve p 11121
time step continuity errors : sum local = 5.53429e-05, global = -8.14285e-21, cumulative = -1.8053e-19
[OGL LOG] init_host_sparsity_pattern : 229 ms
[OGL LOG] matrix not stored update host matrix
[OGL LOG] update_host_mtx : 126 ms
[OGL LOG] matrix is not yet sorted, sorting host matrix
[OGL LOG] sort_host_mtx_sparsity_pattern : 177 ms
[OGL LOG] sort_host_mtx : 104 ms
[OGL LOG] init_preconditioner : 0 ms
[OGL LOG] solve : 9284 ms
BJompGKOBiCGStab:  Solving for p, Initial residual = 0.672578, Final residual = 8.17075e-05, No Iterations 361
linear solve p 10048
time step continuity errors : sum local = 1.17164e-07, global = -9.32548e-22, cumulative = -1.81463e-19
ExecutionTime = 5626.39 s  ClockTime = 167 s

Time = 0.007

Courant Number mean: 0.10215 max: 0.888441
nonePBiCGStab:  Solving for Ux, Initial residual = 0.0253745, Final residual = 0.00900445, No Iterations 5
nonePBiCGStab:  Solving for Uy, Initial residual = 0.0820638, Final residual = 0.0291779, No Iterations 5
nonePBiCGStab:  Solving for Uz, Initial residual = 0.487666, Final residual = 0.0886511, No Iterations 5
linear solve U 445
[OGL LOG] init_host_sparsity_pattern : 233 ms
[OGL LOG] matrix not stored update host matrix
[OGL LOG] update_host_mtx : 126 ms
[OGL LOG] matrix is not yet sorted, sorting host matrix
[OGL LOG] sort_host_mtx_sparsity_pattern : 177 ms
[OGL LOG] sort_host_mtx : 104 ms
[OGL LOG] init_preconditioner : 0 ms
[OGL LOG] solve : 5138 ms
BJompGKOBiCGStab:  Solving for p, Initial residual = 0.828512, Final residual = 9.54679e-05, No Iterations 189
linear solve p 5904
time step continuity errors : sum local = 1.69207e-07, global = 7.42357e-21, cumulative = -1.74039e-19
[OGL LOG] init_host_sparsity_pattern : 229 ms
[OGL LOG] matrix not stored update host matrix
[OGL LOG] update_host_mtx : 126 ms
[OGL LOG] matrix is not yet sorted, sorting host matrix
[OGL LOG] sort_host_mtx_sparsity_pattern : 177 ms
[OGL LOG] sort_host_mtx : 104 ms
[OGL LOG] init_preconditioner : 0 ms
[OGL LOG] solve : 5601 ms
BJompGKOBiCGStab:  Solving for p, Initial residual = 0.693859, Final residual = 8.99926e-05, No Iterations 204
linear solve p 6364
time step continuity errors : sum local = 1.99038e-07, global = -5.59482e-21, cumulative = -1.79634e-19
ExecutionTime = 6056.88 s  ClockTime = 180 s

Time = 0.008

Courant Number mean: 0.107348 max: 0.891971
nonePBiCGStab:  Solving for Ux, Initial residual = 0.0216469, Final residual = 0.00475247, No Iterations 5
nonePBiCGStab:  Solving for Uy, Initial residual = 0.070427, Final residual = 0.0179119, No Iterations 5
nonePBiCGStab:  Solving for Uz, Initial residual = 0.365158, Final residual = 0.0542589, No Iterations 5
linear solve U 447
[OGL LOG] init_host_sparsity_pattern : 233 ms
[OGL LOG] matrix not stored update host matrix
[OGL LOG] update_host_mtx : 126 ms
[OGL LOG] matrix is not yet sorted, sorting host matrix
[OGL LOG] sort_host_mtx_sparsity_pattern : 177 ms
[OGL LOG] sort_host_mtx : 104 ms
[OGL LOG] init_preconditioner : 0 ms
[OGL LOG] solve : 5334 ms
BJompGKOBiCGStab:  Solving for p, Initial residual = 0.796705, Final residual = 7.55204e-05, No Iterations 207
linear solve p 6107
time step continuity errors : sum local = 3.31784e-07, global = -1.88891e-20, cumulative = -1.98523e-19
[OGL LOG] init_host_sparsity_pattern : 231 ms
[OGL LOG] matrix not stored update host matrix
[OGL LOG] update_host_mtx : 126 ms
[OGL LOG] matrix is not yet sorted, sorting host matrix
[OGL LOG] sort_host_mtx_sparsity_pattern : 184 ms
[OGL LOG] sort_host_mtx : 104 ms
[OGL LOG] init_preconditioner : 0 ms
[OGL LOG] solve : 5092 ms
BJompGKOBiCGStab:  Solving for p, Initial residual = 0.668599, Final residual = 9.80841e-05, No Iterations 186
linear solve p 5874
time step continuity errors : sum local = 1.68872e-07, global = 3.8249e-22, cumulative = -1.98141e-19
ExecutionTime = 6475.01 s  ClockTime = 193 s

Time = 0.009

Courant Number mean: 0.113209 max: 0.895523
nonePBiCGStab:  Solving for Ux, Initial residual = 0.0197331, Final residual = 0.00404397, No Iterations 5
nonePBiCGStab:  Solving for Uy, Initial residual = 0.0588728, Final residual = 0.0146441, No Iterations 5
nonePBiCGStab:  Solving for Uz, Initial residual = 0.325047, Final residual = 0.0429079, No Iterations 5
linear solve U 448
[OGL LOG] init_host_sparsity_pattern : 233 ms
[OGL LOG] matrix not stored update host matrix
[OGL LOG] update_host_mtx : 126 ms
[OGL LOG] matrix is not yet sorted, sorting host matrix
[OGL LOG] sort_host_mtx_sparsity_pattern : 177 ms
[OGL LOG] sort_host_mtx : 104 ms
[OGL LOG] init_preconditioner : 0 ms
[OGL LOG] solve : 4643 ms
BJompGKOBiCGStab:  Solving for p, Initial residual = 0.811077, Final residual = 9.72958e-05, No Iterations 170
linear solve p 5413
time step continuity errors : sum local = 2.14633e-07, global = 2.03789e-20, cumulative = -1.77762e-19
[OGL LOG] init_host_sparsity_pattern : 227 ms
[OGL LOG] matrix not stored update host matrix
[OGL LOG] update_host_mtx : 126 ms
[OGL LOG] matrix is not yet sorted, sorting host matrix
[OGL LOG] sort_host_mtx_sparsity_pattern : 183 ms
[OGL LOG] sort_host_mtx : 104 ms
[OGL LOG] init_preconditioner : 0 ms
[OGL LOG] solve : 4845 ms
BJompGKOBiCGStab:  Solving for p, Initial residual = 0.686971, Final residual = 9.51654e-05, No Iterations 179
linear solve p 5623
time step continuity errors : sum local = 1.30653e-07, global = -8.65221e-22, cumulative = -1.78627e-19
ExecutionTime = 6855.85 s  ClockTime = 205 s

Time = 0.01

Courant Number mean: 0.11837 max: 0.898102
nonePBiCGStab:  Solving for Ux, Initial residual = 0.0169784, Final residual = 0.00324794, No Iterations 5
nonePBiCGStab:  Solving for Uy, Initial residual = 0.0554949, Final residual = 0.0134341, No Iterations 5
nonePBiCGStab:  Solving for Uz, Initial residual = 0.281634, Final residual = 0.0451616, No Iterations 5
linear solve U 447
[OGL LOG] init_host_sparsity_pattern : 233 ms
[OGL LOG] matrix not stored update host matrix
[OGL LOG] update_host_mtx : 126 ms
[OGL LOG] matrix is not yet sorted, sorting host matrix
[OGL LOG] sort_host_mtx_sparsity_pattern : 177 ms
[OGL LOG] sort_host_mtx : 104 ms
[OGL LOG] init_preconditioner : 0 ms
[OGL LOG] solve : 10967 ms
BJompGKOBiCGStab:  Solving for p, Initial residual = 0.784192, Final residual = 9.72922e-05, No Iterations 421
linear solve p 11737
time step continuity errors : sum local = 1.21512e-07, global = -7.40356e-21, cumulative = -1.86031e-19
[OGL LOG] init_host_sparsity_pattern : 231 ms
[OGL LOG] matrix not stored update host matrix
[OGL LOG] update_host_mtx : 126 ms
[OGL LOG] matrix is not yet sorted, sorting host matrix
[OGL LOG] sort_host_mtx_sparsity_pattern : 177 ms
[OGL LOG] sort_host_mtx : 104 ms
[OGL LOG] init_preconditioner : 0 ms
[OGL LOG] solve : 4501 ms
BJompGKOBiCGStab:  Solving for p, Initial residual = 0.664384, Final residual = 9.97777e-05, No Iterations 166
linear solve p 5266
time step continuity errors : sum local = 2.44595e-07, global = 4.27737e-21, cumulative = -1.81753e-19
ExecutionTime = 7474.38 s  ClockTime = 223 s

End

