/*---------------------------------------------------------------------------*\
  =========                 |
  \\      /  F ield         | OpenFOAM: The Open Source CFD Toolbox
   \\    /   O peration     | Website:  https://openfoam.org
    \\  /    A nd           | Version:  8
     \\/     M anipulation  |
\*---------------------------------------------------------------------------*/
Build  : 8-14d69e1ee166
Exec   : icoFoam
Date   : Jul 29 2021
Time   : 05:07:58
Host   : "guyot.icl.utk.edu"
PID    : 245878
I/O    : uncollated
Case   : /home/greole/code/OBR/lidDrivenCavity3D/Variation_mesh/5/Variation_matrix_solver/CG_NoPrecond_CUDA/base
nProcs : 1
sigFpe : Enabling floating point exception trapping (FOAM_SIGFPE).
fileModificationChecking : Monitoring run-time modified files using timeStampMaster (fileModificationSkew 10)
allowSystemOperations : Allowing user-supplied system call operations

// * * * * * * * * * * * * * * * * * * * * * * * * * * * * * * * * * * * * * //
Create time

Create mesh for time = 0

Reading transportProperties

Reading field p

Reading field U

Reading/calculating face flux field phi


Starting time loop

Time = 0.001

Courant Number mean: 0 max: 0
DILUPBiCGStab:  Solving for Ux, Initial residual = 1, Final residual = 8.38041e-30, No Iterations 5
DILUPBiCGStab:  Solving for Uy:  solution singularity
DILUPBiCGStab:  Solving for Uz:  solution singularity
linear solve U 183
[OGL LOG] init_host_sparsity_pattern : 0 ms
[OGL LOG] matrix not stored update host matrix
[OGL LOG] update_host_mtx : 0 ms
[OGL LOG] matrix is not yet sorted, compute sorting idxs
[OGL LOG] compute_sort : 0 ms
[OGL LOG] matrix is not yet sorted, sorting host matrix
[OGL LOG] sort_host_mtx_sparsity_pattern : 0 ms
[OGL LOG] sort_host_mtx : 0 ms
[OGL LOG] init_preconditioner : 0 ms
[OGL LOG] solve : 9 ms
nonecudaGKOCG:  Solving for p, Initial residual = 1, Final residual = 4.84498e-05, No Iterations 31
linear solve p 1650888
time step continuity errors : sum local = 9.09472e-09, global = -2.27185e-21, cumulative = -2.27185e-21
[OGL LOG] init_host_sparsity_pattern : 0 ms
[OGL LOG] matrix not stored update host matrix
[OGL LOG] update_host_mtx : 0 ms
[OGL LOG] matrix is not yet sorted, sorting host matrix
[OGL LOG] sort_host_mtx_sparsity_pattern : 0 ms
[OGL LOG] sort_host_mtx : 0 ms
[OGL LOG] init_preconditioner : 0 ms
[OGL LOG] solve : 6 ms
nonecudaGKOCG:  Solving for p, Initial residual = 0.054493, Final residual = 9.23434e-05, No Iterations 26
linear solve p 7239
time step continuity errors : sum local = 3.41031e-08, global = -1.38098e-21, cumulative = -3.65283e-21
ExecutionTime = 1.7 s  ClockTime = 2 s

Time = 0.002

Courant Number mean: 0.000593121 max: 0.00137349
DILUPBiCGStab:  Solving for Ux, Initial residual = 0.290545, Final residual = 1.32905e-30, No Iterations 5
DILUPBiCGStab:  Solving for Uy, Initial residual = 0.317546, Final residual = 1.13415e-30, No Iterations 5
DILUPBiCGStab:  Solving for Uz, Initial residual = 0.317208, Final residual = 2.84825e-30, No Iterations 5
linear solve U 124
[OGL LOG] init_host_sparsity_pattern : 0 ms
[OGL LOG] matrix not stored update host matrix
[OGL LOG] update_host_mtx : 0 ms
[OGL LOG] matrix is not yet sorted, sorting host matrix
[OGL LOG] sort_host_mtx_sparsity_pattern : 0 ms
[OGL LOG] sort_host_mtx : 0 ms
[OGL LOG] init_preconditioner : 0 ms
[OGL LOG] solve : 4 ms
nonecudaGKOCG:  Solving for p, Initial residual = 0.1104, Final residual = 9.32052e-05, No Iterations 15
linear solve p 4679
time step continuity errors : sum local = 5.30678e-08, global = 1.44757e-21, cumulative = -2.20526e-21
[OGL LOG] init_host_sparsity_pattern : 0 ms
[OGL LOG] matrix not stored update host matrix
[OGL LOG] update_host_mtx : 0 ms
[OGL LOG] matrix is not yet sorted, sorting host matrix
[OGL LOG] sort_host_mtx_sparsity_pattern : 0 ms
[OGL LOG] sort_host_mtx : 0 ms
[OGL LOG] init_preconditioner : 0 ms
[OGL LOG] solve : 2 ms
nonecudaGKOCG:  Solving for p, Initial residual = 0.00289511, Final residual = 6.30732e-05, No Iterations 10
linear solve p 3501
time step continuity errors : sum local = 3.92713e-08, global = -4.68001e-21, cumulative = -6.88527e-21
ExecutionTime = 1.7 s  ClockTime = 2 s

Time = 0.003

Courant Number mean: 0.00113041 max: 0.00263299
DILUPBiCGStab:  Solving for Ux, Initial residual = 0.161947, Final residual = 7.38224e-31, No Iterations 5
DILUPBiCGStab:  Solving for Uy, Initial residual = 0.186574, Final residual = 6.79899e-31, No Iterations 5
DILUPBiCGStab:  Solving for Uz, Initial residual = 0.229807, Final residual = 1.62825e-30, No Iterations 5
linear solve U 110
[OGL LOG] init_host_sparsity_pattern : 0 ms
[OGL LOG] matrix not stored update host matrix
[OGL LOG] update_host_mtx : 0 ms
[OGL LOG] matrix is not yet sorted, sorting host matrix
[OGL LOG] sort_host_mtx_sparsity_pattern : 0 ms
[OGL LOG] sort_host_mtx : 0 ms
[OGL LOG] init_preconditioner : 0 ms
[OGL LOG] solve : 5 ms
nonecudaGKOCG:  Solving for p, Initial residual = 0.0561612, Final residual = 9.20398e-05, No Iterations 23
linear solve p 6466
time step continuity errors : sum local = 4.33131e-08, global = -7.88551e-21, cumulative = -1.47708e-20
[OGL LOG] init_host_sparsity_pattern : 0 ms
[OGL LOG] matrix not stored update host matrix
[OGL LOG] update_host_mtx : 0 ms
[OGL LOG] matrix is not yet sorted, sorting host matrix
[OGL LOG] sort_host_mtx_sparsity_pattern : 0 ms
[OGL LOG] sort_host_mtx : 0 ms
[OGL LOG] init_preconditioner : 0 ms
[OGL LOG] solve : 2 ms
nonecudaGKOCG:  Solving for p, Initial residual = 0.00153164, Final residual = 6.01959e-05, No Iterations 6
linear solve p 2588
time step continuity errors : sum local = 3.39461e-08, global = -4.85421e-21, cumulative = -1.9625e-20
ExecutionTime = 1.71 s  ClockTime = 2 s

Time = 0.004

Courant Number mean: 0.0016182 max: 0.00379122
DILUPBiCGStab:  Solving for Ux, Initial residual = 0.108854, Final residual = 5.0147e-31, No Iterations 5
DILUPBiCGStab:  Solving for Uy, Initial residual = 0.129126, Final residual = 4.60966e-31, No Iterations 5
DILUPBiCGStab:  Solving for Uz, Initial residual = 0.175221, Final residual = 1.05011e-30, No Iterations 5
linear solve U 110
[OGL LOG] init_host_sparsity_pattern : 0 ms
[OGL LOG] matrix not stored update host matrix
[OGL LOG] update_host_mtx : 0 ms
[OGL LOG] matrix is not yet sorted, sorting host matrix
[OGL LOG] sort_host_mtx_sparsity_pattern : 0 ms
[OGL LOG] sort_host_mtx : 0 ms
[OGL LOG] init_preconditioner : 0 ms
[OGL LOG] solve : 3 ms
nonecudaGKOCG:  Solving for p, Initial residual = 0.0347343, Final residual = 9.72683e-05, No Iterations 12
linear solve p 3971
time step continuity errors : sum local = 6.57366e-08, global = 7.90526e-21, cumulative = -1.17197e-20
[OGL LOG] init_host_sparsity_pattern : 0 ms
[OGL LOG] matrix not stored update host matrix
[OGL LOG] update_host_mtx : 0 ms
[OGL LOG] matrix is not yet sorted, sorting host matrix
[OGL LOG] sort_host_mtx_sparsity_pattern : 0 ms
[OGL LOG] sort_host_mtx : 0 ms
[OGL LOG] init_preconditioner : 0 ms
[OGL LOG] solve : 2 ms
nonecudaGKOCG:  Solving for p, Initial residual = 0.00102688, Final residual = 6.55629e-05, No Iterations 7
linear solve p 2822
time step continuity errors : sum local = 5.07217e-08, global = -9.91459e-21, cumulative = -2.16343e-20
ExecutionTime = 1.72 s  ClockTime = 2 s

Time = 0.005

Courant Number mean: 0.00206191 max: 0.00485796
DILUPBiCGStab:  Solving for Ux, Initial residual = 0.0800669, Final residual = 3.73332e-31, No Iterations 5
DILUPBiCGStab:  Solving for Uy, Initial residual = 0.0966906, Final residual = 3.34074e-31, No Iterations 5
DILUPBiCGStab:  Solving for Uz, Initial residual = 0.142945, Final residual = 7.06755e-31, No Iterations 5
linear solve U 111
[OGL LOG] init_host_sparsity_pattern : 0 ms
[OGL LOG] matrix not stored update host matrix
[OGL LOG] update_host_mtx : 0 ms
[OGL LOG] matrix is not yet sorted, sorting host matrix
[OGL LOG] sort_host_mtx_sparsity_pattern : 0 ms
[OGL LOG] sort_host_mtx : 0 ms
[OGL LOG] init_preconditioner : 0 ms
[OGL LOG] solve : 5 ms
nonecudaGKOCG:  Solving for p, Initial residual = 0.0235499, Final residual = 8.7461e-05, No Iterations 23
linear solve p 6455
time step continuity errors : sum local = 4.71668e-08, global = -1.7791e-20, cumulative = -3.94253e-20
[OGL LOG] init_host_sparsity_pattern : 0 ms
[OGL LOG] matrix not stored update host matrix
[OGL LOG] update_host_mtx : 0 ms
[OGL LOG] matrix is not yet sorted, sorting host matrix
[OGL LOG] sort_host_mtx_sparsity_pattern : 0 ms
[OGL LOG] sort_host_mtx : 0 ms
[OGL LOG] init_preconditioner : 0 ms
[OGL LOG] solve : 2 ms
nonecudaGKOCG:  Solving for p, Initial residual = 0.000765996, Final residual = 7.82535e-05, No Iterations 6
linear solve p 2578
time step continuity errors : sum local = 4.92475e-08, global = 2.81752e-20, cumulative = -1.12501e-20
ExecutionTime = 1.73 s  ClockTime = 2 s

Time = 0.006

Courant Number mean: 0.00246619 max: 0.00584194
DILUPBiCGStab:  Solving for Ux, Initial residual = 0.0620368, Final residual = 2.91999e-31, No Iterations 5
DILUPBiCGStab:  Solving for Uy, Initial residual = 0.0759909, Final residual = 2.54714e-31, No Iterations 5
DILUPBiCGStab:  Solving for Uz, Initial residual = 0.118556, Final residual = 6.23756e-31, No Iterations 5
linear solve U 110
[OGL LOG] init_host_sparsity_pattern : 0 ms
[OGL LOG] matrix not stored update host matrix
[OGL LOG] update_host_mtx : 0 ms
[OGL LOG] matrix is not yet sorted, sorting host matrix
[OGL LOG] sort_host_mtx_sparsity_pattern : 0 ms
[OGL LOG] sort_host_mtx : 0 ms
[OGL LOG] init_preconditioner : 0 ms
[OGL LOG] solve : 3 ms
nonecudaGKOCG:  Solving for p, Initial residual = 0.0172962, Final residual = 8.59925e-05, No Iterations 12
linear solve p 3964
time step continuity errors : sum local = 6.98059e-08, global = -1.3639e-20, cumulative = -2.48891e-20
[OGL LOG] init_host_sparsity_pattern : 0 ms
[OGL LOG] matrix not stored update host matrix
[OGL LOG] update_host_mtx : 0 ms
[OGL LOG] matrix is not yet sorted, sorting host matrix
[OGL LOG] sort_host_mtx_sparsity_pattern : 0 ms
[OGL LOG] sort_host_mtx : 0 ms
[OGL LOG] init_preconditioner : 0 ms
[OGL LOG] solve : 2 ms
nonecudaGKOCG:  Solving for p, Initial residual = 0.000632016, Final residual = 7.56719e-05, No Iterations 6
linear solve p 2583
time step continuity errors : sum local = 6.3277e-08, global = -1.12844e-20, cumulative = -3.61735e-20
ExecutionTime = 1.73 s  ClockTime = 2 s

Time = 0.007

Courant Number mean: 0.00283514 max: 0.00675067
DILUPBiCGStab:  Solving for Ux, Initial residual = 0.0497806, Final residual = 2.35987e-31, No Iterations 5
DILUPBiCGStab:  Solving for Uy, Initial residual = 0.061636, Final residual = 2.02427e-31, No Iterations 5
DILUPBiCGStab:  Solving for Uz, Initial residual = 0.101567, Final residual = 6.15619e-31, No Iterations 5
linear solve U 110
[OGL LOG] init_host_sparsity_pattern : 0 ms
[OGL LOG] matrix not stored update host matrix
[OGL LOG] update_host_mtx : 0 ms
[OGL LOG] matrix is not yet sorted, sorting host matrix
[OGL LOG] sort_host_mtx_sparsity_pattern : 0 ms
[OGL LOG] sort_host_mtx : 0 ms
[OGL LOG] init_preconditioner : 0 ms
[OGL LOG] solve : 5 ms
nonecudaGKOCG:  Solving for p, Initial residual = 0.0132894, Final residual = 6.93904e-05, No Iterations 23
linear solve p 6489
time step continuity errors : sum local = 3.96611e-08, global = 1.33474e-20, cumulative = -2.28261e-20
[OGL LOG] init_host_sparsity_pattern : 0 ms
[OGL LOG] matrix not stored update host matrix
[OGL LOG] update_host_mtx : 0 ms
[OGL LOG] matrix is not yet sorted, sorting host matrix
[OGL LOG] sort_host_mtx_sparsity_pattern : 0 ms
[OGL LOG] sort_host_mtx : 0 ms
[OGL LOG] init_preconditioner : 0 ms
[OGL LOG] solve : 2 ms
nonecudaGKOCG:  Solving for p, Initial residual = 0.000522891, Final residual = 6.38747e-05, No Iterations 6
linear solve p 2667
time step continuity errors : sum local = 4.40806e-08, global = -1.69214e-20, cumulative = -3.97475e-20
ExecutionTime = 1.75 s  ClockTime = 2 s

Time = 0.008

Courant Number mean: 0.00317231 max: 0.00759082
DILUPBiCGStab:  Solving for Ux, Initial residual = 0.0409003, Final residual = 1.95653e-31, No Iterations 5
DILUPBiCGStab:  Solving for Uy, Initial residual = 0.0512142, Final residual = 1.67148e-31, No Iterations 5
DILUPBiCGStab:  Solving for Uz, Initial residual = 0.0874898, Final residual = 6.14289e-31, No Iterations 5
linear solve U 110
[OGL LOG] init_host_sparsity_pattern : 0 ms
[OGL LOG] matrix not stored update host matrix
[OGL LOG] update_host_mtx : 0 ms
[OGL LOG] matrix is not yet sorted, sorting host matrix
[OGL LOG] sort_host_mtx_sparsity_pattern : 0 ms
[OGL LOG] sort_host_mtx : 0 ms
[OGL LOG] init_preconditioner : 0 ms
[OGL LOG] solve : 3 ms
nonecudaGKOCG:  Solving for p, Initial residual = 0.0106288, Final residual = 7.60746e-05, No Iterations 12
linear solve p 3968
time step continuity errors : sum local = 6.66053e-08, global = -1.73116e-20, cumulative = -5.70591e-20
[OGL LOG] init_host_sparsity_pattern : 0 ms
[OGL LOG] matrix not stored update host matrix
[OGL LOG] update_host_mtx : 0 ms
[OGL LOG] matrix is not yet sorted, sorting host matrix
[OGL LOG] sort_host_mtx_sparsity_pattern : 0 ms
[OGL LOG] sort_host_mtx : 0 ms
[OGL LOG] init_preconditioner : 0 ms
[OGL LOG] solve : 2 ms
nonecudaGKOCG:  Solving for p, Initial residual = 0.000468705, Final residual = 6.61507e-05, No Iterations 6
linear solve p 2572
time step continuity errors : sum local = 5.90496e-08, global = 4.0201e-22, cumulative = -5.66571e-20
ExecutionTime = 1.76 s  ClockTime = 2 s

Time = 0.009

Courant Number mean: 0.00348091 max: 0.00836826
DILUPBiCGStab:  Solving for Ux, Initial residual = 0.0342429, Final residual = 1.65817e-31, No Iterations 5
DILUPBiCGStab:  Solving for Uy, Initial residual = 0.0432833, Final residual = 1.40213e-31, No Iterations 5
DILUPBiCGStab:  Solving for Uz, Initial residual = 0.0773212, Final residual = 5.98324e-31, No Iterations 5
linear solve U 110
[OGL LOG] init_host_sparsity_pattern : 0 ms
[OGL LOG] matrix not stored update host matrix
[OGL LOG] update_host_mtx : 0 ms
[OGL LOG] matrix is not yet sorted, sorting host matrix
[OGL LOG] sort_host_mtx_sparsity_pattern : 0 ms
[OGL LOG] sort_host_mtx : 0 ms
[OGL LOG] init_preconditioner : 0 ms
[OGL LOG] solve : 5 ms
nonecudaGKOCG:  Solving for p, Initial residual = 0.00873331, Final residual = 6.71879e-05, No Iterations 23
linear solve p 6457
time step continuity errors : sum local = 4.0571e-08, global = 2.46583e-21, cumulative = -5.41913e-20
[OGL LOG] init_host_sparsity_pattern : 0 ms
[OGL LOG] matrix not stored update host matrix
[OGL LOG] update_host_mtx : 0 ms
[OGL LOG] matrix is not yet sorted, sorting host matrix
[OGL LOG] sort_host_mtx_sparsity_pattern : 0 ms
[OGL LOG] sort_host_mtx : 0 ms
[OGL LOG] init_preconditioner : 0 ms
[OGL LOG] solve : 1 ms
nonecudaGKOCG:  Solving for p, Initial residual = 0.000427432, Final residual = 9.25453e-05, No Iterations 5
linear solve p 2350
time step continuity errors : sum local = 6.1341e-08, global = -2.32231e-20, cumulative = -7.74144e-20
ExecutionTime = 1.76 s  ClockTime = 2 s

Time = 0.01

Courant Number mean: 0.0037637 max: 0.00908823
DILUPBiCGStab:  Solving for Ux, Initial residual = 0.0290452, Final residual = 1.43104e-31, No Iterations 5
DILUPBiCGStab:  Solving for Uy, Initial residual = 0.0371272, Final residual = 1.19519e-31, No Iterations 5
DILUPBiCGStab:  Solving for Uz, Initial residual = 0.0683991, Final residual = 4.96443e-31, No Iterations 5
linear solve U 116
[OGL LOG] init_host_sparsity_pattern : 0 ms
[OGL LOG] matrix not stored update host matrix
[OGL LOG] update_host_mtx : 0 ms
[OGL LOG] matrix is not yet sorted, sorting host matrix
[OGL LOG] sort_host_mtx_sparsity_pattern : 0 ms
[OGL LOG] sort_host_mtx : 0 ms
[OGL LOG] init_preconditioner : 0 ms
[OGL LOG] solve : 3 ms
nonecudaGKOCG:  Solving for p, Initial residual = 0.00735346, Final residual = 6.69308e-05, No Iterations 12
linear solve p 3952
time step continuity errors : sum local = 6.18481e-08, global = -9.29503e-21, cumulative = -8.67094e-20
[OGL LOG] init_host_sparsity_pattern : 0 ms
[OGL LOG] matrix not stored update host matrix
[OGL LOG] update_host_mtx : 0 ms
[OGL LOG] matrix is not yet sorted, sorting host matrix
[OGL LOG] sort_host_mtx_sparsity_pattern : 0 ms
[OGL LOG] sort_host_mtx : 0 ms
[OGL LOG] init_preconditioner : 0 ms
[OGL LOG] solve : 1 ms
nonecudaGKOCG:  Solving for p, Initial residual = 0.000384769, Final residual = 8.28759e-05, No Iterations 5
linear solve p 2348
time step continuity errors : sum local = 7.01591e-08, global = -2.42364e-21, cumulative = -8.91331e-20
ExecutionTime = 1.77 s  ClockTime = 2 s

End

