/*---------------------------------------------------------------------------*\
  =========                 |
  \\      /  F ield         | OpenFOAM: The Open Source CFD Toolbox
   \\    /   O peration     | Website:  https://openfoam.org
    \\  /    A nd           | Version:  8
     \\/     M anipulation  |
\*---------------------------------------------------------------------------*/
Build  : 8-40a5a48f630f
Exec   : icoFoam
Date   : Jul 28 2021
Time   : 13:27:40
Host   : "uc2n449.localdomain"
PID    : 1430984
I/O    : uncollated
Case   : /pfs/data5/home/kit/scc/nq7776/code/OBR/lidDrivenCavity3D/Variation_mesh/95/Variation_matrix_solver/IR_NoPrecond_OMP/base
nProcs : 1
sigFpe : Enabling floating point exception trapping (FOAM_SIGFPE).
fileModificationChecking : Monitoring run-time modified files using timeStampMaster (fileModificationSkew 10)
allowSystemOperations : Allowing user-supplied system call operations

// * * * * * * * * * * * * * * * * * * * * * * * * * * * * * * * * * * * * * //
Create time

Create mesh for time = 0

Reading transportProperties

Reading field p

Reading field U

Reading/calculating face flux field phi


Starting time loop

Time = 0.001

Courant Number mean: 0 max: 0
nonePBiCGStab:  Solving for Ux, Initial residual = 1, Final residual = 0.078913, No Iterations 5
nonePBiCGStab:  Solving for Uy, Initial residual = 0, Final residual = 0, No Iterations 0
nonePBiCGStab:  Solving for Uz, Initial residual = 0, Final residual = 0, No Iterations 0
linear solve U 223
[OGL LOG] init_host_sparsity_pattern : 246 ms
[OGL LOG] matrix not stored update host matrix
[OGL LOG] update_host_mtx : 127 ms
[OGL LOG] matrix is not yet sorted, compute sorting idxs
[OGL LOG] compute_sort : 7705 ms
[OGL LOG] matrix is not yet sorted, sorting host matrix
[OGL LOG] sort_host_mtx_sparsity_pattern : 176 ms
[OGL LOG] sort_host_mtx : 104 ms
[OGL LOG] init_preconditioner : 0 ms
[OGL LOG] solve : 6656 ms
noneompGKOIR:  Solving for p, Initial residual = 1, Final residual = 1.80083e-05, No Iterations 3
linear solve p 15215
time step continuity errors : sum local = 7.08083e-09, global = 1.0427e-20, cumulative = 1.0427e-20
[OGL LOG] init_host_sparsity_pattern : 237 ms
[OGL LOG] matrix not stored update host matrix
[OGL LOG] update_host_mtx : 126 ms
[OGL LOG] matrix is not yet sorted, sorting host matrix
[OGL LOG] sort_host_mtx_sparsity_pattern : 182 ms
[OGL LOG] sort_host_mtx : 104 ms
[OGL LOG] init_preconditioner : 0 ms
[OGL LOG] solve : 6916 ms
noneompGKOIR:  Solving for p, Initial residual = 0.704634, Final residual = 8.90034e-06, No Iterations 3
linear solve p 7713
time step continuity errors : sum local = 4.85985e-09, global = 7.60688e-21, cumulative = 1.80339e-20
ExecutionTime = 553.25 s  ClockTime = 27 s

Time = 0.002

Courant Number mean: 0.0412052 max: 0.745796
nonePBiCGStab:  Solving for Ux, Initial residual = 0.139163, Final residual = 0.0377852, No Iterations 5
nonePBiCGStab:  Solving for Uy, Initial residual = 0.440107, Final residual = 0.117164, No Iterations 5
nonePBiCGStab:  Solving for Uz, Initial residual = 0.986854, Final residual = 0.301627, No Iterations 5
linear solve U 446
[OGL LOG] init_host_sparsity_pattern : 231 ms
[OGL LOG] matrix not stored update host matrix
[OGL LOG] update_host_mtx : 126 ms
[OGL LOG] matrix is not yet sorted, sorting host matrix
[OGL LOG] sort_host_mtx_sparsity_pattern : 183 ms
[OGL LOG] sort_host_mtx : 103 ms
[OGL LOG] init_preconditioner : 0 ms
[OGL LOG] solve : 6347 ms
noneompGKOIR:  Solving for p, Initial residual = 0.777964, Final residual = 4.4511e-06, No Iterations 3
linear solve p 7134
time step continuity errors : sum local = 4.04757e-09, global = 8.06446e-21, cumulative = 2.60984e-20
[OGL LOG] init_host_sparsity_pattern : 233 ms
[OGL LOG] matrix not stored update host matrix
[OGL LOG] update_host_mtx : 126 ms
[OGL LOG] matrix is not yet sorted, sorting host matrix
[OGL LOG] sort_host_mtx_sparsity_pattern : 182 ms
[OGL LOG] sort_host_mtx : 104 ms
[OGL LOG] init_preconditioner : 0 ms
[OGL LOG] solve : 6561 ms
noneompGKOIR:  Solving for p, Initial residual = 0.701324, Final residual = 3.90162e-06, No Iterations 3
linear solve p 7352
time step continuity errors : sum local = 3.61671e-09, global = -1.00887e-20, cumulative = 1.60097e-20
ExecutionTime = 1070.26 s  ClockTime = 43 s

Time = 0.003

Courant Number mean: 0.0654743 max: 0.850092
nonePBiCGStab:  Solving for Ux, Initial residual = 0.0603645, Final residual = 0.0137682, No Iterations 5
nonePBiCGStab:  Solving for Uy, Initial residual = 0.195466, Final residual = 0.0536142, No Iterations 5
nonePBiCGStab:  Solving for Uz, Initial residual = 0.690789, Final residual = 0.194362, No Iterations 5
linear solve U 446
[OGL LOG] init_host_sparsity_pattern : 231 ms
[OGL LOG] matrix not stored update host matrix
[OGL LOG] update_host_mtx : 126 ms
[OGL LOG] matrix is not yet sorted, sorting host matrix
[OGL LOG] sort_host_mtx_sparsity_pattern : 182 ms
[OGL LOG] sort_host_mtx : 104 ms
[OGL LOG] init_preconditioner : 0 ms
[OGL LOG] solve : 6778 ms
noneompGKOIR:  Solving for p, Initial residual = 0.778383, Final residual = 4.02182e-06, No Iterations 3
linear solve p 7561
time step continuity errors : sum local = 2.83879e-09, global = 1.18346e-20, cumulative = 2.78442e-20
[OGL LOG] init_host_sparsity_pattern : 229 ms
[OGL LOG] matrix not stored update host matrix
[OGL LOG] update_host_mtx : 131 ms
[OGL LOG] matrix is not yet sorted, sorting host matrix
[OGL LOG] sort_host_mtx_sparsity_pattern : 177 ms
[OGL LOG] sort_host_mtx : 104 ms
[OGL LOG] init_preconditioner : 0 ms
[OGL LOG] solve : 6892 ms
noneompGKOIR:  Solving for p, Initial residual = 0.706932, Final residual = 3.14178e-06, No Iterations 3
linear solve p 7665
time step continuity errors : sum local = 2.16113e-09, global = -1.94774e-21, cumulative = 2.58965e-20
ExecutionTime = 1617.6 s  ClockTime = 59 s

Time = 0.004

Courant Number mean: 0.0789381 max: 0.864939
nonePBiCGStab:  Solving for Ux, Initial residual = 0.0376436, Final residual = 0.00929655, No Iterations 5
nonePBiCGStab:  Solving for Uy, Initial residual = 0.138314, Final residual = 0.0427936, No Iterations 5
nonePBiCGStab:  Solving for Uz, Initial residual = 0.460102, Final residual = 0.117219, No Iterations 5
linear solve U 449
[OGL LOG] init_host_sparsity_pattern : 230 ms
[OGL LOG] matrix not stored update host matrix
[OGL LOG] update_host_mtx : 127 ms
[OGL LOG] matrix is not yet sorted, sorting host matrix
[OGL LOG] sort_host_mtx_sparsity_pattern : 183 ms
[OGL LOG] sort_host_mtx : 105 ms
[OGL LOG] init_preconditioner : 0 ms
[OGL LOG] solve : 7330 ms
noneompGKOIR:  Solving for p, Initial residual = 0.688374, Final residual = 3.1362e-06, No Iterations 3
linear solve p 8114
time step continuity errors : sum local = 2.24397e-09, global = 1.85897e-20, cumulative = 4.44862e-20
[OGL LOG] init_host_sparsity_pattern : 228 ms
[OGL LOG] matrix not stored update host matrix
[OGL LOG] update_host_mtx : 126 ms
[OGL LOG] matrix is not yet sorted, sorting host matrix
[OGL LOG] sort_host_mtx_sparsity_pattern : 177 ms
[OGL LOG] sort_host_mtx : 105 ms
[OGL LOG] init_preconditioner : 0 ms
[OGL LOG] solve : 7362 ms
noneompGKOIR:  Solving for p, Initial residual = 0.592579, Final residual = 2.60872e-06, No Iterations 3
linear solve p 8129
time step continuity errors : sum local = 1.90771e-09, global = -5.16057e-21, cumulative = 3.93256e-20
ExecutionTime = 2205.37 s  ClockTime = 76 s

Time = 0.005

Courant Number mean: 0.089586 max: 0.877407
nonePBiCGStab:  Solving for Ux, Initial residual = 0.0286492, Final residual = 0.0074711, No Iterations 5
nonePBiCGStab:  Solving for Uy, Initial residual = 0.0902509, Final residual = 0.0307145, No Iterations 5
nonePBiCGStab:  Solving for Uz, Initial residual = 0.271303, Final residual = 0.0687976, No Iterations 5
linear solve U 446
[OGL LOG] init_host_sparsity_pattern : 231 ms
[OGL LOG] matrix not stored update host matrix
[OGL LOG] update_host_mtx : 127 ms
[OGL LOG] matrix is not yet sorted, sorting host matrix
[OGL LOG] sort_host_mtx_sparsity_pattern : 183 ms
[OGL LOG] sort_host_mtx : 105 ms
[OGL LOG] init_preconditioner : 0 ms
[OGL LOG] solve : 6267 ms
noneompGKOIR:  Solving for p, Initial residual = 0.723909, Final residual = 3.07732e-06, No Iterations 3
linear solve p 7055
time step continuity errors : sum local = 1.98441e-09, global = 6.61535e-21, cumulative = 4.5941e-20
[OGL LOG] init_host_sparsity_pattern : 228 ms
[OGL LOG] matrix not stored update host matrix
[OGL LOG] update_host_mtx : 126 ms
[OGL LOG] matrix is not yet sorted, sorting host matrix
[OGL LOG] sort_host_mtx_sparsity_pattern : 178 ms
[OGL LOG] sort_host_mtx : 105 ms
[OGL LOG] init_preconditioner : 0 ms
[OGL LOG] solve : 6720 ms
noneompGKOIR:  Solving for p, Initial residual = 0.640108, Final residual = 2.5539e-06, No Iterations 3
linear solve p 7485
time step continuity errors : sum local = 1.62711e-09, global = -1.27312e-21, cumulative = 4.46678e-20
ExecutionTime = 2725.31 s  ClockTime = 92 s

Time = 0.006

Courant Number mean: 0.097836 max: 0.884253
nonePBiCGStab:  Solving for Ux, Initial residual = 0.0222993, Final residual = 0.00592593, No Iterations 5
nonePBiCGStab:  Solving for Uy, Initial residual = 0.0723426, Final residual = 0.0240765, No Iterations 5
nonePBiCGStab:  Solving for Uz, Initial residual = 0.210453, Final residual = 0.0600058, No Iterations 5
linear solve U 446
[OGL LOG] init_host_sparsity_pattern : 228 ms
[OGL LOG] matrix not stored update host matrix
[OGL LOG] update_host_mtx : 126 ms
[OGL LOG] matrix is not yet sorted, sorting host matrix
[OGL LOG] sort_host_mtx_sparsity_pattern : 178 ms
[OGL LOG] sort_host_mtx : 105 ms
[OGL LOG] init_preconditioner : 0 ms
[OGL LOG] solve : 6334 ms
noneompGKOIR:  Solving for p, Initial residual = 0.650947, Final residual = 2.53734e-06, No Iterations 3
linear solve p 7103
time step continuity errors : sum local = 1.71843e-09, global = -8.88775e-21, cumulative = 3.57801e-20
[OGL LOG] init_host_sparsity_pattern : 232 ms
[OGL LOG] matrix not stored update host matrix
[OGL LOG] update_host_mtx : 127 ms
[OGL LOG] matrix is not yet sorted, sorting host matrix
[OGL LOG] sort_host_mtx_sparsity_pattern : 183 ms
[OGL LOG] sort_host_mtx : 105 ms
[OGL LOG] init_preconditioner : 0 ms
[OGL LOG] solve : 6864 ms
noneompGKOIR:  Solving for p, Initial residual = 0.558401, Final residual = 2.11302e-06, No Iterations 3
linear solve p 7653
time step continuity errors : sum local = 1.44805e-09, global = 2.2155e-20, cumulative = 5.79351e-20
ExecutionTime = 3253.3 s  ClockTime = 108 s

Time = 0.007

Courant Number mean: 0.104798 max: 0.889601
nonePBiCGStab:  Solving for Ux, Initial residual = 0.0189515, Final residual = 0.00480599, No Iterations 5
nonePBiCGStab:  Solving for Uy, Initial residual = 0.0561574, Final residual = 0.0194308, No Iterations 5
nonePBiCGStab:  Solving for Uz, Initial residual = 0.158711, Final residual = 0.0444962, No Iterations 5
linear solve U 446
[OGL LOG] init_host_sparsity_pattern : 231 ms
[OGL LOG] matrix not stored update host matrix
[OGL LOG] update_host_mtx : 127 ms
[OGL LOG] matrix is not yet sorted, sorting host matrix
[OGL LOG] sort_host_mtx_sparsity_pattern : 183 ms
[OGL LOG] sort_host_mtx : 105 ms
[OGL LOG] init_preconditioner : 0 ms
[OGL LOG] solve : 6664 ms
noneompGKOIR:  Solving for p, Initial residual = 0.687784, Final residual = 2.29795e-06, No Iterations 3
linear solve p 7453
time step continuity errors : sum local = 1.42678e-09, global = 1.74203e-20, cumulative = 7.53554e-20
[OGL LOG] init_host_sparsity_pattern : 228 ms
[OGL LOG] matrix not stored update host matrix
[OGL LOG] update_host_mtx : 127 ms
[OGL LOG] matrix is not yet sorted, sorting host matrix
[OGL LOG] sort_host_mtx_sparsity_pattern : 177 ms
[OGL LOG] sort_host_mtx : 105 ms
[OGL LOG] init_preconditioner : 0 ms
[OGL LOG] solve : 6550 ms
noneompGKOIR:  Solving for p, Initial residual = 0.596826, Final residual = 2.02854e-06, No Iterations 3
linear solve p 7317
time step continuity errors : sum local = 1.25207e-09, global = 1.65281e-21, cumulative = 7.70082e-20
ExecutionTime = 3782.27 s  ClockTime = 123 s

Time = 0.008

Courant Number mean: 0.110772 max: 0.893418
nonePBiCGStab:  Solving for Ux, Initial residual = 0.01588, Final residual = 0.00431093, No Iterations 5
nonePBiCGStab:  Solving for Uy, Initial residual = 0.0483664, Final residual = 0.0143899, No Iterations 5
nonePBiCGStab:  Solving for Uz, Initial residual = 0.13528, Final residual = 0.0414705, No Iterations 5
linear solve U 444
[OGL LOG] init_host_sparsity_pattern : 228 ms
[OGL LOG] matrix not stored update host matrix
[OGL LOG] update_host_mtx : 127 ms
[OGL LOG] matrix is not yet sorted, sorting host matrix
[OGL LOG] sort_host_mtx_sparsity_pattern : 177 ms
[OGL LOG] sort_host_mtx : 105 ms
[OGL LOG] init_preconditioner : 0 ms
[OGL LOG] solve : 4147 ms
noneompGKOIR:  Solving for p, Initial residual = 0.627396, Final residual = 1.92509e-06, No Iterations 3
linear solve p 4914
time step continuity errors : sum local = 1.30366e-09, global = -5.90156e-21, cumulative = 7.11066e-20
[OGL LOG] init_host_sparsity_pattern : 232 ms
[OGL LOG] matrix not stored update host matrix
[OGL LOG] update_host_mtx : 126 ms
[OGL LOG] matrix is not yet sorted, sorting host matrix
[OGL LOG] sort_host_mtx_sparsity_pattern : 182 ms
[OGL LOG] sort_host_mtx : 105 ms
[OGL LOG] init_preconditioner : 0 ms
[OGL LOG] solve : 4175 ms
noneompGKOIR:  Solving for p, Initial residual = 0.536077, Final residual = 1.67282e-06, No Iterations 3
linear solve p 4962
time step continuity errors : sum local = 1.16237e-09, global = 6.77863e-22, cumulative = 7.17845e-20
ExecutionTime = 4116.4 s  ClockTime = 134 s

Time = 0.009

Courant Number mean: 0.116049 max: 0.896655
nonePBiCGStab:  Solving for Ux, Initial residual = 0.0143114, Final residual = 0.00340127, No Iterations 5
nonePBiCGStab:  Solving for Uy, Initial residual = 0.04047, Final residual = 0.0127274, No Iterations 5
nonePBiCGStab:  Solving for Uz, Initial residual = 0.111428, Final residual = 0.0334338, No Iterations 5
linear solve U 445
[OGL LOG] init_host_sparsity_pattern : 227 ms
[OGL LOG] matrix not stored update host matrix
[OGL LOG] update_host_mtx : 126 ms
[OGL LOG] matrix is not yet sorted, sorting host matrix
[OGL LOG] sort_host_mtx_sparsity_pattern : 178 ms
[OGL LOG] sort_host_mtx : 105 ms
[OGL LOG] init_preconditioner : 0 ms
[OGL LOG] solve : 6449 ms
noneompGKOIR:  Solving for p, Initial residual = 0.665674, Final residual = 1.95739e-06, No Iterations 3
linear solve p 7215
time step continuity errors : sum local = 1.22531e-09, global = -1.25963e-20, cumulative = 5.91882e-20
[OGL LOG] init_host_sparsity_pattern : 228 ms
[OGL LOG] matrix not stored update host matrix
[OGL LOG] update_host_mtx : 126 ms
[OGL LOG] matrix is not yet sorted, sorting host matrix
[OGL LOG] sort_host_mtx_sparsity_pattern : 177 ms
[OGL LOG] sort_host_mtx : 105 ms
[OGL LOG] init_preconditioner : 0 ms
[OGL LOG] solve : 6610 ms
noneompGKOIR:  Solving for p, Initial residual = 0.573081, Final residual = 1.55013e-06, No Iterations 3
linear solve p 7375
time step continuity errors : sum local = 9.68555e-10, global = 8.3916e-21, cumulative = 6.75798e-20
ExecutionTime = 4639.12 s  ClockTime = 150 s

Time = 0.01

Courant Number mean: 0.12081 max: 0.899105
nonePBiCGStab:  Solving for Ux, Initial residual = 0.0124662, Final residual = 0.00287373, No Iterations 5
nonePBiCGStab:  Solving for Uy, Initial residual = 0.0363732, Final residual = 0.00973124, No Iterations 5
nonePBiCGStab:  Solving for Uz, Initial residual = 0.101499, Final residual = 0.0321043, No Iterations 5
linear solve U 444
[OGL LOG] init_host_sparsity_pattern : 228 ms
[OGL LOG] matrix not stored update host matrix
[OGL LOG] update_host_mtx : 127 ms
[OGL LOG] matrix is not yet sorted, sorting host matrix
[OGL LOG] sort_host_mtx_sparsity_pattern : 178 ms
[OGL LOG] sort_host_mtx : 105 ms
[OGL LOG] init_preconditioner : 0 ms
[OGL LOG] solve : 6442 ms
noneompGKOIR:  Solving for p, Initial residual = 0.612715, Final residual = 1.59876e-06, No Iterations 3
linear solve p 7211
time step continuity errors : sum local = 1.0498e-09, global = -3.81625e-22, cumulative = 6.71981e-20
[OGL LOG] init_host_sparsity_pattern : 233 ms
[OGL LOG] matrix not stored update host matrix
[OGL LOG] update_host_mtx : 132 ms
[OGL LOG] matrix is not yet sorted, sorting host matrix
[OGL LOG] sort_host_mtx_sparsity_pattern : 183 ms
[OGL LOG] sort_host_mtx : 105 ms
[OGL LOG] init_preconditioner : 0 ms
[OGL LOG] solve : 6685 ms
noneompGKOIR:  Solving for p, Initial residual = 0.524013, Final residual = 1.32607e-06, No Iterations 3
linear solve p 7479
time step continuity errors : sum local = 8.72367e-10, global = -7.16586e-21, cumulative = 6.00323e-20
ExecutionTime = 5164.61 s  ClockTime = 165 s

End

