/*---------------------------------------------------------------------------*\
  =========                 |
  \\      /  F ield         | OpenFOAM: The Open Source CFD Toolbox
   \\    /   O peration     | Website:  https://openfoam.org
    \\  /    A nd           | Version:  8
     \\/     M anipulation  |
\*---------------------------------------------------------------------------*/
Build  : 8-40a5a48f630f
Exec   : icoFoam
Date   : Jul 28 2021
Time   : 12:16:30
Host   : "uc2n423.localdomain"
PID    : 1363280
I/O    : uncollated
Case   : /pfs/data5/home/kit/scc/nq7776/code/OBR/lidDrivenCavity3D/Variation_mesh/25/Variation_matrix_solver/BiCGStab_NoPrecond_OMP/base
nProcs : 1
sigFpe : Enabling floating point exception trapping (FOAM_SIGFPE).
fileModificationChecking : Monitoring run-time modified files using timeStampMaster (fileModificationSkew 10)
allowSystemOperations : Allowing user-supplied system call operations

// * * * * * * * * * * * * * * * * * * * * * * * * * * * * * * * * * * * * * //
Create time

Create mesh for time = 0

Reading transportProperties

Reading field p

Reading field U

Reading/calculating face flux field phi


Starting time loop

Time = 0.001

Courant Number mean: 0 max: 0
nonePBiCGStab:  Solving for Ux, Initial residual = 1, Final residual = 0.00310183, No Iterations 5
nonePBiCGStab:  Solving for Uy, Initial residual = 0, Final residual = 0, No Iterations 0
nonePBiCGStab:  Solving for Uz, Initial residual = 0, Final residual = 0, No Iterations 0
linear solve U 2
[OGL LOG] init_host_sparsity_pattern : 4 ms
[OGL LOG] matrix not stored update host matrix
[OGL LOG] update_host_mtx : 2 ms
[OGL LOG] matrix is not yet sorted, compute sorting idxs
[OGL LOG] compute_sort : 105 ms
[OGL LOG] matrix is not yet sorted, sorting host matrix
[OGL LOG] sort_host_mtx_sparsity_pattern : 3 ms
[OGL LOG] sort_host_mtx : 1 ms
[OGL LOG] init_preconditioner : 0 ms
[OGL LOG] solve : 89 ms
noneompGKOBiCGStab:  Solving for p, Initial residual = 1, Final residual = 7.67433e-05, No Iterations 160
linear solve p 211
time step continuity errors : sum local = 1.49115e-07, global = -1.89375e-20, cumulative = -1.89375e-20
[OGL LOG] init_host_sparsity_pattern : 4 ms
[OGL LOG] matrix not stored update host matrix
[OGL LOG] update_host_mtx : 2 ms
[OGL LOG] matrix is not yet sorted, sorting host matrix
[OGL LOG] sort_host_mtx_sparsity_pattern : 3 ms
[OGL LOG] sort_host_mtx : 1 ms
[OGL LOG] init_preconditioner : 0 ms
[OGL LOG] solve : 89 ms
noneompGKOBiCGStab:  Solving for p, Initial residual = 0.480772, Final residual = 9.14798e-05, No Iterations 161
linear solve p 102
time step continuity errors : sum local = 2.83712e-07, global = 2.30983e-20, cumulative = 4.16087e-21
ExecutionTime = 0.6 s  ClockTime = 1 s

Time = 0.002

Courant Number mean: 0.0119709 max: 0.106554
nonePBiCGStab:  Solving for Ux, Initial residual = 0.210816, Final residual = 0.000695328, No Iterations 5
nonePBiCGStab:  Solving for Uy, Initial residual = 0.284549, Final residual = 0.000646862, No Iterations 5
nonePBiCGStab:  Solving for Uz, Initial residual = 0.879162, Final residual = 0.00338671, No Iterations 5
linear solve U 5
[OGL LOG] init_host_sparsity_pattern : 4 ms
[OGL LOG] matrix not stored update host matrix
[OGL LOG] update_host_mtx : 2 ms
[OGL LOG] matrix is not yet sorted, sorting host matrix
[OGL LOG] sort_host_mtx_sparsity_pattern : 3 ms
[OGL LOG] sort_host_mtx : 1 ms
[OGL LOG] init_preconditioner : 0 ms
[OGL LOG] solve : 85 ms
noneompGKOBiCGStab:  Solving for p, Initial residual = 0.286109, Final residual = 9.43849e-05, No Iterations 153
linear solve p 97
time step continuity errors : sum local = 3.20698e-06, global = -7.67076e-21, cumulative = -3.50988e-21
[OGL LOG] init_host_sparsity_pattern : 4 ms
[OGL LOG] matrix not stored update host matrix
[OGL LOG] update_host_mtx : 2 ms
[OGL LOG] matrix is not yet sorted, sorting host matrix
[OGL LOG] sort_host_mtx_sparsity_pattern : 2 ms
[OGL LOG] sort_host_mtx : 1 ms
[OGL LOG] init_preconditioner : 0 ms
[OGL LOG] solve : 82 ms
noneompGKOBiCGStab:  Solving for p, Initial residual = 0.192151, Final residual = 8.55975e-05, No Iterations 146
linear solve p 95
time step continuity errors : sum local = 4.13498e-07, global = 2.75017e-21, cumulative = -7.59714e-22
ExecutionTime = 0.98 s  ClockTime = 1 s

Time = 0.003

Courant Number mean: 0.0188465 max: 0.153564
nonePBiCGStab:  Solving for Ux, Initial residual = 0.089997, Final residual = 0.000292378, No Iterations 5
nonePBiCGStab:  Solving for Uy, Initial residual = 0.12492, Final residual = 0.000200451, No Iterations 5
nonePBiCGStab:  Solving for Uz, Initial residual = 0.276795, Final residual = 0.00133517, No Iterations 5
linear solve U 5
[OGL LOG] init_host_sparsity_pattern : 4 ms
[OGL LOG] matrix not stored update host matrix
[OGL LOG] update_host_mtx : 2 ms
[OGL LOG] matrix is not yet sorted, sorting host matrix
[OGL LOG] sort_host_mtx_sparsity_pattern : 3 ms
[OGL LOG] sort_host_mtx : 1 ms
[OGL LOG] init_preconditioner : 0 ms
[OGL LOG] solve : 76 ms
noneompGKOBiCGStab:  Solving for p, Initial residual = 0.104311, Final residual = 9.6395e-05, No Iterations 137
linear solve p 89
time step continuity errors : sum local = 2.36043e-07, global = 1.78009e-21, cumulative = 1.02038e-21
[OGL LOG] init_host_sparsity_pattern : 4 ms
[OGL LOG] matrix not stored update host matrix
[OGL LOG] update_host_mtx : 2 ms
[OGL LOG] matrix is not yet sorted, sorting host matrix
[OGL LOG] sort_host_mtx_sparsity_pattern : 2 ms
[OGL LOG] sort_host_mtx : 1 ms
[OGL LOG] init_preconditioner : 0 ms
[OGL LOG] solve : 75 ms
noneompGKOBiCGStab:  Solving for p, Initial residual = 0.0707479, Final residual = 9.86124e-05, No Iterations 132
linear solve p 88
time step continuity errors : sum local = 1.78973e-07, global = -9.7688e-21, cumulative = -8.74842e-21
ExecutionTime = 1.32 s  ClockTime = 1 s

Time = 0.004

Courant Number mean: 0.0233144 max: 0.175118
nonePBiCGStab:  Solving for Ux, Initial residual = 0.0520968, Final residual = 0.000101732, No Iterations 5
nonePBiCGStab:  Solving for Uy, Initial residual = 0.0743105, Final residual = 6.2809e-05, No Iterations 5
nonePBiCGStab:  Solving for Uz, Initial residual = 0.130962, Final residual = 0.000227912, No Iterations 5
linear solve U 5
[OGL LOG] init_host_sparsity_pattern : 4 ms
[OGL LOG] matrix not stored update host matrix
[OGL LOG] update_host_mtx : 2 ms
[OGL LOG] matrix is not yet sorted, sorting host matrix
[OGL LOG] sort_host_mtx_sparsity_pattern : 3 ms
[OGL LOG] sort_host_mtx : 1 ms
[OGL LOG] init_preconditioner : 0 ms
[OGL LOG] solve : 32 ms
noneompGKOBiCGStab:  Solving for p, Initial residual = 0.0553361, Final residual = 7.56643e-05, No Iterations 56
linear solve p 44
time step continuity errors : sum local = 9.88521e-08, global = 1.93964e-20, cumulative = 1.06479e-20
[OGL LOG] init_host_sparsity_pattern : 4 ms
[OGL LOG] matrix not stored update host matrix
[OGL LOG] update_host_mtx : 2 ms
[OGL LOG] matrix is not yet sorted, sorting host matrix
[OGL LOG] sort_host_mtx_sparsity_pattern : 2 ms
[OGL LOG] sort_host_mtx : 1 ms
[OGL LOG] init_preconditioner : 0 ms
[OGL LOG] solve : 28 ms
noneompGKOBiCGStab:  Solving for p, Initial residual = 0.0371152, Final residual = 9.78654e-05, No Iterations 50
linear solve p 40
time step continuity errors : sum local = 1.4029e-07, global = 8.88749e-21, cumulative = 1.95354e-20
ExecutionTime = 1.5 s  ClockTime = 1 s

Time = 0.005

Courant Number mean: 0.0264936 max: 0.186504
nonePBiCGStab:  Solving for Ux, Initial residual = 0.0351201, Final residual = 3.73689e-05, No Iterations 5
nonePBiCGStab:  Solving for Uy, Initial residual = 0.0508555, Final residual = 2.64971e-05, No Iterations 5
nonePBiCGStab:  Solving for Uz, Initial residual = 0.09186, Final residual = 0.000147679, No Iterations 5
linear solve U 5
[OGL LOG] init_host_sparsity_pattern : 4 ms
[OGL LOG] matrix not stored update host matrix
[OGL LOG] update_host_mtx : 2 ms
[OGL LOG] matrix is not yet sorted, sorting host matrix
[OGL LOG] sort_host_mtx_sparsity_pattern : 3 ms
[OGL LOG] sort_host_mtx : 1 ms
[OGL LOG] init_preconditioner : 0 ms
[OGL LOG] solve : 30 ms
noneompGKOBiCGStab:  Solving for p, Initial residual = 0.0351689, Final residual = 8.36432e-05, No Iterations 53
linear solve p 42
time step continuity errors : sum local = 9.72514e-08, global = -2.95264e-20, cumulative = -9.991e-21
[OGL LOG] init_host_sparsity_pattern : 4 ms
[OGL LOG] matrix not stored update host matrix
[OGL LOG] update_host_mtx : 2 ms
[OGL LOG] matrix is not yet sorted, sorting host matrix
[OGL LOG] sort_host_mtx_sparsity_pattern : 3 ms
[OGL LOG] sort_host_mtx : 1 ms
[OGL LOG] init_preconditioner : 0 ms
[OGL LOG] solve : 27 ms
noneompGKOBiCGStab:  Solving for p, Initial residual = 0.0233169, Final residual = 9.77674e-05, No Iterations 47
linear solve p 40
time step continuity errors : sum local = 1.72189e-07, global = -2.06022e-20, cumulative = -3.05932e-20
ExecutionTime = 1.66 s  ClockTime = 1 s

Time = 0.006

Courant Number mean: 0.0288951 max: 0.193336
nonePBiCGStab:  Solving for Ux, Initial residual = 0.025923, Final residual = 1.39976e-05, No Iterations 5
nonePBiCGStab:  Solving for Uy, Initial residual = 0.0380404, Final residual = 1.50547e-05, No Iterations 5
nonePBiCGStab:  Solving for Uz, Initial residual = 0.0709879, Final residual = 6.7477e-05, No Iterations 5
linear solve U 5
[OGL LOG] init_host_sparsity_pattern : 4 ms
[OGL LOG] matrix not stored update host matrix
[OGL LOG] update_host_mtx : 2 ms
[OGL LOG] matrix is not yet sorted, sorting host matrix
[OGL LOG] sort_host_mtx_sparsity_pattern : 3 ms
[OGL LOG] sort_host_mtx : 1 ms
[OGL LOG] init_preconditioner : 0 ms
[OGL LOG] solve : 29 ms
noneompGKOBiCGStab:  Solving for p, Initial residual = 0.0245808, Final residual = 8.00042e-05, No Iterations 51
linear solve p 41
time step continuity errors : sum local = 1.08564e-07, global = 2.01861e-20, cumulative = -1.04071e-20
[OGL LOG] init_host_sparsity_pattern : 4 ms
[OGL LOG] matrix not stored update host matrix
[OGL LOG] update_host_mtx : 2 ms
[OGL LOG] matrix is not yet sorted, sorting host matrix
[OGL LOG] sort_host_mtx_sparsity_pattern : 3 ms
[OGL LOG] sort_host_mtx : 1 ms
[OGL LOG] init_preconditioner : 0 ms
[OGL LOG] solve : 26 ms
noneompGKOBiCGStab:  Solving for p, Initial residual = 0.0164908, Final residual = 9.41373e-05, No Iterations 46
linear solve p 39
time step continuity errors : sum local = 2.37299e-07, global = 1.93767e-21, cumulative = -8.46945e-21
ExecutionTime = 1.82 s  ClockTime = 2 s

Time = 0.007

Courant Number mean: 0.0308304 max: 0.197891
nonePBiCGStab:  Solving for Ux, Initial residual = 0.0202992, Final residual = 6.95226e-06, No Iterations 5
nonePBiCGStab:  Solving for Uy, Initial residual = 0.0301199, Final residual = 9.50213e-06, No Iterations 5
nonePBiCGStab:  Solving for Uz, Initial residual = 0.0576378, Final residual = 4.42015e-05, No Iterations 5
linear solve U 5
[OGL LOG] init_host_sparsity_pattern : 4 ms
[OGL LOG] matrix not stored update host matrix
[OGL LOG] update_host_mtx : 2 ms
[OGL LOG] matrix is not yet sorted, sorting host matrix
[OGL LOG] sort_host_mtx_sparsity_pattern : 2 ms
[OGL LOG] sort_host_mtx : 1 ms
[OGL LOG] init_preconditioner : 0 ms
[OGL LOG] solve : 31 ms
noneompGKOBiCGStab:  Solving for p, Initial residual = 0.0190295, Final residual = 8.91006e-05, No Iterations 56
linear solve p 43
time step continuity errors : sum local = 8.13213e-08, global = -7.00539e-21, cumulative = -1.54748e-20
[OGL LOG] init_host_sparsity_pattern : 4 ms
[OGL LOG] matrix not stored update host matrix
[OGL LOG] update_host_mtx : 2 ms
[OGL LOG] matrix is not yet sorted, sorting host matrix
[OGL LOG] sort_host_mtx_sparsity_pattern : 2 ms
[OGL LOG] sort_host_mtx : 1 ms
[OGL LOG] init_preconditioner : 0 ms
[OGL LOG] solve : 28 ms
noneompGKOBiCGStab:  Solving for p, Initial residual = 0.0128567, Final residual = 8.66414e-05, No Iterations 51
linear solve p 41
time step continuity errors : sum local = 8.71715e-08, global = -1.98627e-20, cumulative = -3.53376e-20
ExecutionTime = 1.98 s  ClockTime = 2 s

Time = 0.008

Courant Number mean: 0.0324764 max: 0.201171
nonePBiCGStab:  Solving for Ux, Initial residual = 0.0165599, Final residual = 4.80546e-06, No Iterations 5
nonePBiCGStab:  Solving for Uy, Initial residual = 0.0245752, Final residual = 6.25028e-06, No Iterations 5
nonePBiCGStab:  Solving for Uz, Initial residual = 0.0480176, Final residual = 3.05383e-05, No Iterations 5
linear solve U 5
[OGL LOG] init_host_sparsity_pattern : 4 ms
[OGL LOG] matrix not stored update host matrix
[OGL LOG] update_host_mtx : 2 ms
[OGL LOG] matrix is not yet sorted, sorting host matrix
[OGL LOG] sort_host_mtx_sparsity_pattern : 3 ms
[OGL LOG] sort_host_mtx : 1 ms
[OGL LOG] init_preconditioner : 0 ms
[OGL LOG] solve : 28 ms
noneompGKOBiCGStab:  Solving for p, Initial residual = 0.0150473, Final residual = 9.89449e-05, No Iterations 51
linear solve p 41
time step continuity errors : sum local = 9.94354e-08, global = -5.55188e-21, cumulative = -4.08895e-20
[OGL LOG] init_host_sparsity_pattern : 4 ms
[OGL LOG] matrix not stored update host matrix
[OGL LOG] update_host_mtx : 2 ms
[OGL LOG] matrix is not yet sorted, sorting host matrix
[OGL LOG] sort_host_mtx_sparsity_pattern : 2 ms
[OGL LOG] sort_host_mtx : 1 ms
[OGL LOG] init_preconditioner : 0 ms
[OGL LOG] solve : 26 ms
noneompGKOBiCGStab:  Solving for p, Initial residual = 0.0102957, Final residual = 9.98629e-05, No Iterations 47
linear solve p 39
time step continuity errors : sum local = 9.14927e-08, global = -2.77524e-21, cumulative = -4.36647e-20
ExecutionTime = 2.14 s  ClockTime = 2 s

Time = 0.009

Courant Number mean: 0.0338806 max: 0.203668
nonePBiCGStab:  Solving for Ux, Initial residual = 0.0137906, Final residual = 3.31581e-06, No Iterations 5
nonePBiCGStab:  Solving for Uy, Initial residual = 0.0206983, Final residual = 4.48913e-06, No Iterations 5
nonePBiCGStab:  Solving for Uz, Initial residual = 0.0410287, Final residual = 2.23605e-05, No Iterations 5
linear solve U 5
[OGL LOG] init_host_sparsity_pattern : 4 ms
[OGL LOG] matrix not stored update host matrix
[OGL LOG] update_host_mtx : 2 ms
[OGL LOG] matrix is not yet sorted, sorting host matrix
[OGL LOG] sort_host_mtx_sparsity_pattern : 3 ms
[OGL LOG] sort_host_mtx : 1 ms
[OGL LOG] init_preconditioner : 0 ms
[OGL LOG] solve : 29 ms
noneompGKOBiCGStab:  Solving for p, Initial residual = 0.0125152, Final residual = 5.87671e-05, No Iterations 52
linear solve p 41
time step continuity errors : sum local = 5.35447e-08, global = -4.90265e-21, cumulative = -4.85673e-20
[OGL LOG] init_host_sparsity_pattern : 4 ms
[OGL LOG] matrix not stored update host matrix
[OGL LOG] update_host_mtx : 2 ms
[OGL LOG] matrix is not yet sorted, sorting host matrix
[OGL LOG] sort_host_mtx_sparsity_pattern : 2 ms
[OGL LOG] sort_host_mtx : 1 ms
[OGL LOG] init_preconditioner : 0 ms
[OGL LOG] solve : 26 ms
noneompGKOBiCGStab:  Solving for p, Initial residual = 0.00857441, Final residual = 7.48258e-05, No Iterations 46
linear solve p 38
time step continuity errors : sum local = 8.96023e-08, global = 4.51256e-20, cumulative = -3.44169e-21
ExecutionTime = 2.29 s  ClockTime = 2 s

Time = 0.01

Courant Number mean: 0.0350918 max: 0.205643
nonePBiCGStab:  Solving for Ux, Initial residual = 0.0117162, Final residual = 2.17479e-06, No Iterations 5
nonePBiCGStab:  Solving for Uy, Initial residual = 0.0177248, Final residual = 3.13523e-06, No Iterations 5
nonePBiCGStab:  Solving for Uz, Initial residual = 0.0353652, Final residual = 1.57091e-05, No Iterations 5
linear solve U 5
[OGL LOG] init_host_sparsity_pattern : 4 ms
[OGL LOG] matrix not stored update host matrix
[OGL LOG] update_host_mtx : 2 ms
[OGL LOG] matrix is not yet sorted, sorting host matrix
[OGL LOG] sort_host_mtx_sparsity_pattern : 3 ms
[OGL LOG] sort_host_mtx : 1 ms
[OGL LOG] init_preconditioner : 0 ms
[OGL LOG] solve : 27 ms
noneompGKOBiCGStab:  Solving for p, Initial residual = 0.0104675, Final residual = 8.0534e-05, No Iterations 49
linear solve p 40
time step continuity errors : sum local = 1.05413e-07, global = -1.61414e-21, cumulative = -5.05583e-21
[OGL LOG] init_host_sparsity_pattern : 4 ms
[OGL LOG] matrix not stored update host matrix
[OGL LOG] update_host_mtx : 2 ms
[OGL LOG] matrix is not yet sorted, sorting host matrix
[OGL LOG] sort_host_mtx_sparsity_pattern : 2 ms
[OGL LOG] sort_host_mtx : 1 ms
[OGL LOG] init_preconditioner : 0 ms
[OGL LOG] solve : 25 ms
noneompGKOBiCGStab:  Solving for p, Initial residual = 0.00723486, Final residual = 9.90154e-05, No Iterations 46
linear solve p 38
time step continuity errors : sum local = 8.71193e-08, global = 7.86861e-21, cumulative = 2.81278e-21
ExecutionTime = 2.45 s  ClockTime = 2 s

End

