/*---------------------------------------------------------------------------*\
  =========                 |
  \\      /  F ield         | OpenFOAM: The Open Source CFD Toolbox
   \\    /   O peration     | Website:  https://openfoam.org
    \\  /    A nd           | Version:  8
     \\/     M anipulation  |
\*---------------------------------------------------------------------------*/
Build  : 8-ef60d22ea792
Exec   : icoFoam
Date   : Jul 29 2021
Time   : 06:44:01
Host   : "nla-gpu2.ianm.kit.edu"
PID    : 1933073
I/O    : uncollated
Case   : /home/greole/code/OBR/lidDrivenCavity3D/Variation_mesh/80/Variation_matrix_solver/BiCGStab_BJ_HIP/base
nProcs : 1
sigFpe : Enabling floating point exception trapping (FOAM_SIGFPE).
fileModificationChecking : Monitoring run-time modified files using timeStampMaster (fileModificationSkew 10)
allowSystemOperations : Allowing user-supplied system call operations

// * * * * * * * * * * * * * * * * * * * * * * * * * * * * * * * * * * * * * //
Create time

Create mesh for time = 0

Reading transportProperties

Reading field p

Reading field U

Reading/calculating face flux field phi


Starting time loop

Time = 0.001

Courant Number mean: 0 max: 0
DILUPBiCGStab:  Solving for Ux, Initial residual = 1, Final residual = 0.00289442, No Iterations 5
DILUPBiCGStab:  Solving for Uy:  solution singularity
DILUPBiCGStab:  Solving for Uz:  solution singularity
linear solve U 213772
[OGL LOG] init_host_sparsity_pattern : 234 ms
[OGL LOG] matrix not stored update host matrix
[OGL LOG] update_host_mtx : 114 ms
[OGL LOG] matrix is not yet sorted, compute sorting idxs
[OGL LOG] compute_sort : 4838 ms
[OGL LOG] matrix is not yet sorted, sorting host matrix
[OGL LOG] sort_host_mtx_sparsity_pattern : 104 ms
[OGL LOG] sort_host_mtx : 62 ms
[OGL LOG] init_preconditioner : 390 ms
[OGL LOG] solve : 389 ms
BJhipGKOBiCGStab:  Solving for p, Initial residual = 1, Final residual = 9.077e-05, No Iterations 414
linear solve p 6596074
time step continuity errors : sum local = 0.00867735, global = 1.35027e-18, cumulative = 1.35027e-18
[OGL LOG] init_host_sparsity_pattern : 225 ms
[OGL LOG] matrix not stored update host matrix
[OGL LOG] update_host_mtx : 121 ms
[OGL LOG] matrix is not yet sorted, sorting host matrix
[OGL LOG] sort_host_mtx_sparsity_pattern : 88 ms
[OGL LOG] sort_host_mtx : 54 ms
[OGL LOG] init_preconditioner : 0 ms
[OGL LOG] solve : 130 ms
BJhipGKOBiCGStab:  Solving for p, Initial residual = 0.971493, Final residual = 6.35516e-05, No Iterations 151
linear solve p 641439
time step continuity errors : sum local = 9.89474e-05, global = 1.72685e-20, cumulative = 1.36754e-18
ExecutionTime = 10.17 s  ClockTime = 10 s

Time = 0.002

Courant Number mean: 0.0452762 max: 0.615118
DILUPBiCGStab:  Solving for Ux, Initial residual = 0.148843, Final residual = 0.00107032, No Iterations 5
DILUPBiCGStab:  Solving for Uy, Initial residual = 0.472416, Final residual = 0.00273573, No Iterations 5
DILUPBiCGStab:  Solving for Uz, Initial residual = 0.866876, Final residual = 0.00447325, No Iterations 5
linear solve U 402939
[OGL LOG] init_host_sparsity_pattern : 228 ms
[OGL LOG] matrix not stored update host matrix
[OGL LOG] update_host_mtx : 121 ms
[OGL LOG] matrix is not yet sorted, sorting host matrix
[OGL LOG] sort_host_mtx_sparsity_pattern : 95 ms
[OGL LOG] sort_host_mtx : 53 ms
[OGL LOG] init_preconditioner : 0 ms
[OGL LOG] solve : 314 ms
BJhipGKOBiCGStab:  Solving for p, Initial residual = 0.920483, Final residual = 5.3349e-05, No Iterations 367
linear solve p 833961
time step continuity errors : sum local = 0.0655548, global = -8.61378e-18, cumulative = -7.24624e-18
[OGL LOG] init_host_sparsity_pattern : 225 ms
[OGL LOG] matrix not stored update host matrix
[OGL LOG] update_host_mtx : 121 ms
[OGL LOG] matrix is not yet sorted, sorting host matrix
[OGL LOG] sort_host_mtx_sparsity_pattern : 90 ms
[OGL LOG] sort_host_mtx : 53 ms
[OGL LOG] init_preconditioner : 0 ms
[OGL LOG] solve : 129 ms
BJhipGKOBiCGStab:  Solving for p, Initial residual = 0.974767, Final residual = 9.26559e-05, No Iterations 150
linear solve p 639851
time step continuity errors : sum local = 7.5788e-05, global = -9.76056e-20, cumulative = -7.34384e-18
ExecutionTime = 12.63 s  ClockTime = 12 s

Time = 0.003

Courant Number mean: 0.0700989 max: 0.745006
DILUPBiCGStab:  Solving for Ux, Initial residual = 0.0752341, Final residual = 0.000458228, No Iterations 5
DILUPBiCGStab:  Solving for Uy, Initial residual = 0.636885, Final residual = 0.0027515, No Iterations 5
DILUPBiCGStab:  Solving for Uz, Initial residual = 0.898831, Final residual = 0.00420077, No Iterations 5
linear solve U 400892
[OGL LOG] init_host_sparsity_pattern : 229 ms
[OGL LOG] matrix not stored update host matrix
[OGL LOG] update_host_mtx : 121 ms
[OGL LOG] matrix is not yet sorted, sorting host matrix
[OGL LOG] sort_host_mtx_sparsity_pattern : 92 ms
[OGL LOG] sort_host_mtx : 54 ms
[OGL LOG] init_preconditioner : 0 ms
[OGL LOG] solve : 129 ms
BJhipGKOBiCGStab:  Solving for p, Initial residual = 0.95261, Final residual = 9.94947e-05, No Iterations 151
linear solve p 647263
time step continuity errors : sum local = 9.86046e-06, global = 5.18619e-20, cumulative = -7.29198e-18
[OGL LOG] init_host_sparsity_pattern : 227 ms
[OGL LOG] matrix not stored update host matrix
[OGL LOG] update_host_mtx : 112 ms
[OGL LOG] matrix is not yet sorted, sorting host matrix
[OGL LOG] sort_host_mtx_sparsity_pattern : 91 ms
[OGL LOG] sort_host_mtx : 56 ms
[OGL LOG] init_preconditioner : 0 ms
[OGL LOG] solve : 121 ms
BJhipGKOBiCGStab:  Solving for p, Initial residual = 0.831542, Final residual = 9.80866e-05, No Iterations 138
linear solve p 630092
time step continuity errors : sum local = 2.17071e-05, global = -5.44794e-20, cumulative = -7.34646e-18
ExecutionTime = 14.73 s  ClockTime = 14 s

Time = 0.004

Courant Number mean: 0.101027 max: 0.922328
DILUPBiCGStab:  Solving for Ux, Initial residual = 0.0798903, Final residual = 0.000430698, No Iterations 5
DILUPBiCGStab:  Solving for Uy, Initial residual = 0.558901, Final residual = 0.00254081, No Iterations 5
DILUPBiCGStab:  Solving for Uz, Initial residual = 0.887704, Final residual = 0.00291651, No Iterations 5
linear solve U 402603
[OGL LOG] init_host_sparsity_pattern : 224 ms
[OGL LOG] matrix not stored update host matrix
[OGL LOG] update_host_mtx : 113 ms
[OGL LOG] matrix is not yet sorted, sorting host matrix
[OGL LOG] sort_host_mtx_sparsity_pattern : 95 ms
[OGL LOG] sort_host_mtx : 54 ms
[OGL LOG] init_preconditioner : 0 ms
[OGL LOG] solve : 302 ms
BJhipGKOBiCGStab:  Solving for p, Initial residual = 0.973348, Final residual = 9.97409e-05, No Iterations 353
linear solve p 810680
time step continuity errors : sum local = 6.14959e-06, global = 5.67239e-21, cumulative = -7.34079e-18
[OGL LOG] init_host_sparsity_pattern : 224 ms
[OGL LOG] matrix not stored update host matrix
[OGL LOG] update_host_mtx : 110 ms
[OGL LOG] matrix is not yet sorted, sorting host matrix
[OGL LOG] sort_host_mtx_sparsity_pattern : 92 ms
[OGL LOG] sort_host_mtx : 56 ms
[OGL LOG] init_preconditioner : 0 ms
[OGL LOG] solve : 133 ms
BJhipGKOBiCGStab:  Solving for p, Initial residual = 0.834114, Final residual = 9.96748e-05, No Iterations 153
linear solve p 637944
time step continuity errors : sum local = 2.67421e-05, global = 2.49087e-20, cumulative = -7.31588e-18
ExecutionTime = 17.16 s  ClockTime = 16 s

Time = 0.005

Courant Number mean: 0.0963182 max: 1.41979
DILUPBiCGStab:  Solving for Ux, Initial residual = 0.0663457, Final residual = 0.000431407, No Iterations 5
DILUPBiCGStab:  Solving for Uy, Initial residual = 0.43362, Final residual = 0.00172493, No Iterations 5
DILUPBiCGStab:  Solving for Uz, Initial residual = 0.908265, Final residual = 0.00184326, No Iterations 5
linear solve U 402295
[OGL LOG] init_host_sparsity_pattern : 224 ms
[OGL LOG] matrix not stored update host matrix
[OGL LOG] update_host_mtx : 121 ms
[OGL LOG] matrix is not yet sorted, sorting host matrix
[OGL LOG] sort_host_mtx_sparsity_pattern : 92 ms
[OGL LOG] sort_host_mtx : 57 ms
[OGL LOG] init_preconditioner : 0 ms
[OGL LOG] solve : 348 ms
BJhipGKOBiCGStab:  Solving for p, Initial residual = 0.983227, Final residual = 9.07964e-05, No Iterations 407
linear solve p 865495
time step continuity errors : sum local = 0.287313, global = 3.45071e-17, cumulative = 2.71912e-17
[OGL LOG] init_host_sparsity_pattern : 227 ms
[OGL LOG] matrix not stored update host matrix
[OGL LOG] update_host_mtx : 121 ms
[OGL LOG] matrix is not yet sorted, sorting host matrix
[OGL LOG] sort_host_mtx_sparsity_pattern : 87 ms
[OGL LOG] sort_host_mtx : 55 ms
[OGL LOG] init_preconditioner : 0 ms
[OGL LOG] solve : 115 ms
BJhipGKOBiCGStab:  Solving for p, Initial residual = 0.942762, Final residual = 7.93922e-05, No Iterations 131
linear solve p 626239
time step continuity errors : sum local = 0.000138173, global = 1.88925e-19, cumulative = 2.73802e-17
ExecutionTime = 19.62 s  ClockTime = 19 s

Time = 0.006

Courant Number mean: 0.106787 max: 1.55812
DILUPBiCGStab:  Solving for Ux, Initial residual = 0.115341, Final residual = 0.00107116, No Iterations 5
DILUPBiCGStab:  Solving for Uy, Initial residual = 0.726466, Final residual = 0.0028778, No Iterations 5
DILUPBiCGStab:  Solving for Uz, Initial residual = 0.840653, Final residual = 0.00387111, No Iterations 5
linear solve U 403177
[OGL LOG] init_host_sparsity_pattern : 224 ms
[OGL LOG] matrix not stored update host matrix
[OGL LOG] update_host_mtx : 110 ms
[OGL LOG] matrix is not yet sorted, sorting host matrix
[OGL LOG] sort_host_mtx_sparsity_pattern : 86 ms
[OGL LOG] sort_host_mtx : 55 ms
[OGL LOG] init_preconditioner : 0 ms
[OGL LOG] solve : 314 ms
BJhipGKOBiCGStab:  Solving for p, Initial residual = 0.964575, Final residual = 9.87355e-05, No Iterations 363
linear solve p 812250
time step continuity errors : sum local = 0.0539726, global = 3.09448e-18, cumulative = 3.04746e-17
[OGL LOG] init_host_sparsity_pattern : 224 ms
[OGL LOG] matrix not stored update host matrix
[OGL LOG] update_host_mtx : 121 ms
[OGL LOG] matrix is not yet sorted, sorting host matrix
[OGL LOG] sort_host_mtx_sparsity_pattern : 92 ms
[OGL LOG] sort_host_mtx : 54 ms
[OGL LOG] init_preconditioner : 0 ms
[OGL LOG] solve : 314 ms
BJhipGKOBiCGStab:  Solving for p, Initial residual = 0.843896, Final residual = 9.25973e-05, No Iterations 362
linear solve p 827241
time step continuity errors : sum local = 0.272494, global = -8.98577e-17, cumulative = -5.93831e-17
ExecutionTime = 22.33 s  ClockTime = 21 s

Time = 0.007

Courant Number mean: 0.319889 max: 3.41535
DILUPBiCGStab:  Solving for Ux, Initial residual = 0.271895, Final residual = 0.00169311, No Iterations 5
DILUPBiCGStab:  Solving for Uy, Initial residual = 0.504415, Final residual = 0.00244868, No Iterations 5
DILUPBiCGStab:  Solving for Uz, Initial residual = 0.619928, Final residual = 0.00279781, No Iterations 5
linear solve U 402382
[OGL LOG] init_host_sparsity_pattern : 222 ms
[OGL LOG] matrix not stored update host matrix
[OGL LOG] update_host_mtx : 121 ms
[OGL LOG] matrix is not yet sorted, sorting host matrix
[OGL LOG] sort_host_mtx_sparsity_pattern : 97 ms
[OGL LOG] sort_host_mtx : 53 ms
[OGL LOG] init_preconditioner : 0 ms
[OGL LOG] solve : 120 ms
BJhipGKOBiCGStab:  Solving for p, Initial residual = 0.920332, Final residual = 9.84673e-05, No Iterations 140
linear solve p 636783
time step continuity errors : sum local = 0.000179688, global = 1.27383e-18, cumulative = -5.81092e-17
[OGL LOG] init_host_sparsity_pattern : 224 ms
[OGL LOG] matrix not stored update host matrix
[OGL LOG] update_host_mtx : 110 ms
[OGL LOG] matrix is not yet sorted, sorting host matrix
[OGL LOG] sort_host_mtx_sparsity_pattern : 87 ms
[OGL LOG] sort_host_mtx : 55 ms
[OGL LOG] init_preconditioner : 0 ms
[OGL LOG] solve : 112 ms
BJhipGKOBiCGStab:  Solving for p, Initial residual = 0.798083, Final residual = 9.98245e-05, No Iterations 131
linear solve p 610751
time step continuity errors : sum local = 0.000105379, global = -1.7816e-18, cumulative = -5.98908e-17
ExecutionTime = 24.41 s  ClockTime = 23 s

Time = 0.008

Courant Number mean: 0.26041 max: 8.61578
DILUPBiCGStab:  Solving for Ux, Initial residual = 0.357501, Final residual = 0.00228338, No Iterations 5
DILUPBiCGStab:  Solving for Uy, Initial residual = 0.761764, Final residual = 0.00373878, No Iterations 5
DILUPBiCGStab:  Solving for Uz, Initial residual = 0.861376, Final residual = 0.00295871, No Iterations 5
linear solve U 402058
[OGL LOG] init_host_sparsity_pattern : 225 ms
[OGL LOG] matrix not stored update host matrix
[OGL LOG] update_host_mtx : 114 ms
[OGL LOG] matrix is not yet sorted, sorting host matrix
[OGL LOG] sort_host_mtx_sparsity_pattern : 92 ms
[OGL LOG] sort_host_mtx : 53 ms
[OGL LOG] init_preconditioner : 0 ms
[OGL LOG] solve : 325 ms
BJhipGKOBiCGStab:  Solving for p, Initial residual = 0.96745, Final residual = 9.4955e-05, No Iterations 381
linear solve p 831578
time step continuity errors : sum local = 0.24431, global = -3.46859e-17, cumulative = -9.45768e-17
[OGL LOG] init_host_sparsity_pattern : 224 ms
[OGL LOG] matrix not stored update host matrix
[OGL LOG] update_host_mtx : 121 ms
[OGL LOG] matrix is not yet sorted, sorting host matrix
[OGL LOG] sort_host_mtx_sparsity_pattern : 86 ms
[OGL LOG] sort_host_mtx : 54 ms
[OGL LOG] init_preconditioner : 0 ms
[OGL LOG] solve : 309 ms
BJhipGKOBiCGStab:  Solving for p, Initial residual = 0.801221, Final residual = 8.77348e-05, No Iterations 364
linear solve p 816692
time step continuity errors : sum local = 0.247503, global = -1.12993e-16, cumulative = -2.07569e-16
ExecutionTime = 27.18 s  ClockTime = 25 s

Time = 0.009

Courant Number mean: 0.289309 max: 3.5181
DILUPBiCGStab:  Solving for Ux, Initial residual = 0.353211, Final residual = 0.00235266, No Iterations 5
DILUPBiCGStab:  Solving for Uy, Initial residual = 0.53422, Final residual = 0.00292756, No Iterations 5
DILUPBiCGStab:  Solving for Uz, Initial residual = 0.76342, Final residual = 0.00289968, No Iterations 5
linear solve U 402529
[OGL LOG] init_host_sparsity_pattern : 223 ms
[OGL LOG] matrix not stored update host matrix
[OGL LOG] update_host_mtx : 121 ms
[OGL LOG] matrix is not yet sorted, sorting host matrix
[OGL LOG] sort_host_mtx_sparsity_pattern : 89 ms
[OGL LOG] sort_host_mtx : 54 ms
[OGL LOG] init_preconditioner : 0 ms
[OGL LOG] solve : 130 ms
BJhipGKOBiCGStab:  Solving for p, Initial residual = 0.905826, Final residual = 9.94772e-05, No Iterations 152
linear solve p 640520
time step continuity errors : sum local = 0.000480987, global = 1.12492e-18, cumulative = -2.06444e-16
[OGL LOG] init_host_sparsity_pattern : 224 ms
[OGL LOG] matrix not stored update host matrix
[OGL LOG] update_host_mtx : 111 ms
[OGL LOG] matrix is not yet sorted, sorting host matrix
[OGL LOG] sort_host_mtx_sparsity_pattern : 95 ms
[OGL LOG] sort_host_mtx : 55 ms
[OGL LOG] init_preconditioner : 0 ms
[OGL LOG] solve : 112 ms
BJhipGKOBiCGStab:  Solving for p, Initial residual = 0.818379, Final residual = 9.9274e-05, No Iterations 129
linear solve p 620044
time step continuity errors : sum local = 0.000507261, global = 5.34223e-19, cumulative = -2.0591e-16
ExecutionTime = 29.27 s  ClockTime = 27 s

Time = 0.01

Courant Number mean: 0.397473 max: 10.9376
DILUPBiCGStab:  Solving for Ux, Initial residual = 0.43163, Final residual = 0.0027675, No Iterations 5
DILUPBiCGStab:  Solving for Uy, Initial residual = 0.735817, Final residual = 0.00348391, No Iterations 5
DILUPBiCGStab:  Solving for Uz, Initial residual = 0.870785, Final residual = 0.00248079, No Iterations 5
linear solve U 407499
[OGL LOG] init_host_sparsity_pattern : 225 ms
[OGL LOG] matrix not stored update host matrix
[OGL LOG] update_host_mtx : 121 ms
[OGL LOG] matrix is not yet sorted, sorting host matrix
[OGL LOG] sort_host_mtx_sparsity_pattern : 91 ms
[OGL LOG] sort_host_mtx : 55 ms
[OGL LOG] init_preconditioner : 0 ms
[OGL LOG] solve : 322 ms
BJhipGKOBiCGStab:  Solving for p, Initial residual = 0.983654, Final residual = 9.4676e-05, No Iterations 379
linear solve p 836161
time step continuity errors : sum local = 0.0893081, global = -3.19238e-18, cumulative = -2.09103e-16
[OGL LOG] init_host_sparsity_pattern : 224 ms
[OGL LOG] matrix not stored update host matrix
[OGL LOG] update_host_mtx : 121 ms
[OGL LOG] matrix is not yet sorted, sorting host matrix
[OGL LOG] sort_host_mtx_sparsity_pattern : 93 ms
[OGL LOG] sort_host_mtx : 58 ms
[OGL LOG] init_preconditioner : 0 ms
[OGL LOG] solve : 288 ms
BJhipGKOBiCGStab:  Solving for p, Initial residual = 0.810789, Final residual = 9.68039e-05, No Iterations 339
linear solve p 807540
time step continuity errors : sum local = 9.45724e-05, global = 2.28161e-19, cumulative = -2.08874e-16
ExecutionTime = 32.04 s  ClockTime = 29 s

End

