/*---------------------------------------------------------------------------*\
  =========                 |
  \\      /  F ield         | OpenFOAM: The Open Source CFD Toolbox
   \\    /   O peration     | Website:  https://openfoam.org
    \\  /    A nd           | Version:  8
     \\/     M anipulation  |
\*---------------------------------------------------------------------------*/
Build  : 8-ef60d22ea792
Exec   : icoFoam
Date   : Jul 29 2021
Time   : 05:38:48
Host   : "nla-gpu2.ianm.kit.edu"
PID    : 1906011
I/O    : uncollated
Case   : /home/greole/code/OBR/lidDrivenCavity3D/Variation_mesh/100/Variation_matrix_solver/CG_NoPrecond_HIP/base
nProcs : 1
sigFpe : Enabling floating point exception trapping (FOAM_SIGFPE).
fileModificationChecking : Monitoring run-time modified files using timeStampMaster (fileModificationSkew 10)
allowSystemOperations : Allowing user-supplied system call operations

// * * * * * * * * * * * * * * * * * * * * * * * * * * * * * * * * * * * * * //
Create time

Create mesh for time = 0

Reading transportProperties

Reading field p

Reading field U

Reading/calculating face flux field phi


Starting time loop

Time = 0.001

Courant Number mean: 0 max: 0
DILUPBiCGStab:  Solving for Ux, Initial residual = 1, Final residual = 0.00717233, No Iterations 5
DILUPBiCGStab:  Solving for Uy:  solution singularity
DILUPBiCGStab:  Solving for Uz:  solution singularity
linear solve U 415213
[OGL LOG] init_host_sparsity_pattern : 461 ms
[OGL LOG] matrix not stored update host matrix
[OGL LOG] update_host_mtx : 233 ms
[OGL LOG] matrix is not yet sorted, compute sorting idxs
[OGL LOG] compute_sort : 10461 ms
[OGL LOG] matrix is not yet sorted, sorting host matrix
[OGL LOG] sort_host_mtx_sparsity_pattern : 209 ms
[OGL LOG] sort_host_mtx : 127 ms
[OGL LOG] init_preconditioner : 0 ms
[OGL LOG] solve : 473 ms
nonehipGKOCG:  Solving for p, Initial residual = 1, Final residual = 9.83967e-05, No Iterations 792
linear solve p 12471837
time step continuity errors : sum local = 5.63642e-08, global = 1.38368e-20, cumulative = 1.38368e-20
[OGL LOG] init_host_sparsity_pattern : 452 ms
[OGL LOG] matrix not stored update host matrix
[OGL LOG] update_host_mtx : 221 ms
[OGL LOG] matrix is not yet sorted, sorting host matrix
[OGL LOG] sort_host_mtx_sparsity_pattern : 191 ms
[OGL LOG] sort_host_mtx : 114 ms
[OGL LOG] init_preconditioner : 0 ms
[OGL LOG] solve : 441 ms
nonehipGKOCG:  Solving for p, Initial residual = 0.777277, Final residual = 9.87696e-05, No Iterations 783
linear solve p 1459236
time step continuity errors : sum local = 7.13878e-08, global = -6.29927e-22, cumulative = 1.32069e-20
ExecutionTime = 19.63 s  ClockTime = 19 s

Time = 0.002

Courant Number mean: 0.0560717 max: 0.805494
DILUPBiCGStab:  Solving for Ux, Initial residual = 0.138283, Final residual = 0.00319035, No Iterations 5
DILUPBiCGStab:  Solving for Uy, Initial residual = 0.430536, Final residual = 0.00909563, No Iterations 5
DILUPBiCGStab:  Solving for Uz, Initial residual = 0.990289, Final residual = 0.0225809, No Iterations 5
linear solve U 815018
[OGL LOG] init_host_sparsity_pattern : 440 ms
[OGL LOG] matrix not stored update host matrix
[OGL LOG] update_host_mtx : 222 ms
[OGL LOG] matrix is not yet sorted, sorting host matrix
[OGL LOG] sort_host_mtx_sparsity_pattern : 187 ms
[OGL LOG] sort_host_mtx : 115 ms
[OGL LOG] init_preconditioner : 0 ms
[OGL LOG] solve : 439 ms
nonehipGKOCG:  Solving for p, Initial residual = 0.7998, Final residual = 9.63043e-05, No Iterations 779
linear solve p 1443556
time step continuity errors : sum local = 9.85434e-08, global = 5.66366e-21, cumulative = 1.88705e-20
[OGL LOG] init_host_sparsity_pattern : 441 ms
[OGL LOG] matrix not stored update host matrix
[OGL LOG] update_host_mtx : 221 ms
[OGL LOG] matrix is not yet sorted, sorting host matrix
[OGL LOG] sort_host_mtx_sparsity_pattern : 190 ms
[OGL LOG] sort_host_mtx : 114 ms
[OGL LOG] init_preconditioner : 0 ms
[OGL LOG] solve : 437 ms
nonehipGKOCG:  Solving for p, Initial residual = 0.740752, Final residual = 9.47316e-05, No Iterations 777
linear solve p 1442874
time step continuity errors : sum local = 9.89394e-08, global = 1.08915e-21, cumulative = 1.99597e-20
ExecutionTime = 24.4 s  ClockTime = 23 s

Time = 0.003

Courant Number mean: 0.0852775 max: 0.943639
DILUPBiCGStab:  Solving for Ux, Initial residual = 0.0649266, Final residual = 0.00112815, No Iterations 5
DILUPBiCGStab:  Solving for Uy, Initial residual = 0.225984, Final residual = 0.00296622, No Iterations 5
DILUPBiCGStab:  Solving for Uz, Initial residual = 0.792339, Final residual = 0.0162125, No Iterations 5
linear solve U 816436
[OGL LOG] init_host_sparsity_pattern : 441 ms
[OGL LOG] matrix not stored update host matrix
[OGL LOG] update_host_mtx : 221 ms
[OGL LOG] matrix is not yet sorted, sorting host matrix
[OGL LOG] sort_host_mtx_sparsity_pattern : 189 ms
[OGL LOG] sort_host_mtx : 117 ms
[OGL LOG] init_preconditioner : 0 ms
[OGL LOG] solve : 262 ms
nonehipGKOCG:  Solving for p, Initial residual = 0.832981, Final residual = 9.93211e-05, No Iterations 464
linear solve p 1270730
time step continuity errors : sum local = 9.63635e-08, global = 1.54406e-20, cumulative = 3.54003e-20
[OGL LOG] init_host_sparsity_pattern : 452 ms
[OGL LOG] matrix not stored update host matrix
[OGL LOG] update_host_mtx : 221 ms
[OGL LOG] matrix is not yet sorted, sorting host matrix
[OGL LOG] sort_host_mtx_sparsity_pattern : 187 ms
[OGL LOG] sort_host_mtx : 120 ms
[OGL LOG] init_preconditioner : 0 ms
[OGL LOG] solve : 265 ms
nonehipGKOCG:  Solving for p, Initial residual = 0.802274, Final residual = 9.75569e-05, No Iterations 463
linear solve p 1284132
time step continuity errors : sum local = 9.19762e-08, global = 6.14742e-21, cumulative = 4.15477e-20
ExecutionTime = 28.63 s  ClockTime = 27 s

Time = 0.004

Courant Number mean: 0.098204 max: 0.926367
DILUPBiCGStab:  Solving for Ux, Initial residual = 0.0388057, Final residual = 0.000835244, No Iterations 5
DILUPBiCGStab:  Solving for Uy, Initial residual = 0.168213, Final residual = 0.00318242, No Iterations 5
DILUPBiCGStab:  Solving for Uz, Initial residual = 0.629426, Final residual = 0.0109808, No Iterations 5
linear solve U 812184
[OGL LOG] init_host_sparsity_pattern : 441 ms
[OGL LOG] matrix not stored update host matrix
[OGL LOG] update_host_mtx : 221 ms
[OGL LOG] matrix is not yet sorted, sorting host matrix
[OGL LOG] sort_host_mtx_sparsity_pattern : 189 ms
[OGL LOG] sort_host_mtx : 119 ms
[OGL LOG] init_preconditioner : 0 ms
[OGL LOG] solve : 263 ms
nonehipGKOCG:  Solving for p, Initial residual = 0.749448, Final residual = 9.53168e-05, No Iterations 463
linear solve p 1272391
time step continuity errors : sum local = 8.92519e-08, global = 6.53902e-21, cumulative = 4.80867e-20
[OGL LOG] init_host_sparsity_pattern : 440 ms
[OGL LOG] matrix not stored update host matrix
[OGL LOG] update_host_mtx : 221 ms
[OGL LOG] matrix is not yet sorted, sorting host matrix
[OGL LOG] sort_host_mtx_sparsity_pattern : 189 ms
[OGL LOG] sort_host_mtx : 119 ms
[OGL LOG] init_preconditioner : 0 ms
[OGL LOG] solve : 241 ms
nonehipGKOCG:  Solving for p, Initial residual = 0.685121, Final residual = 9.98595e-05, No Iterations 425
linear solve p 1249727
time step continuity errors : sum local = 9.1736e-08, global = -1.9117e-21, cumulative = 4.6175e-20
ExecutionTime = 32.78 s  ClockTime = 31 s

Time = 0.005

Courant Number mean: 0.110594 max: 0.944582
DILUPBiCGStab:  Solving for Ux, Initial residual = 0.0304961, Final residual = 0.000612166, No Iterations 5
DILUPBiCGStab:  Solving for Uy, Initial residual = 0.0983616, Final residual = 0.00202356, No Iterations 5
DILUPBiCGStab:  Solving for Uz, Initial residual = 0.588973, Final residual = 0.00952845, No Iterations 5
linear solve U 813049
[OGL LOG] init_host_sparsity_pattern : 440 ms
[OGL LOG] matrix not stored update host matrix
[OGL LOG] update_host_mtx : 221 ms
[OGL LOG] matrix is not yet sorted, sorting host matrix
[OGL LOG] sort_host_mtx_sparsity_pattern : 192 ms
[OGL LOG] sort_host_mtx : 117 ms
[OGL LOG] init_preconditioner : 0 ms
[OGL LOG] solve : 237 ms
nonehipGKOCG:  Solving for p, Initial residual = 0.757795, Final residual = 9.76337e-05, No Iterations 417
linear solve p 1247073
time step continuity errors : sum local = 7.54532e-08, global = 1.62284e-21, cumulative = 4.77979e-20
[OGL LOG] init_host_sparsity_pattern : 450 ms
[OGL LOG] matrix not stored update host matrix
[OGL LOG] update_host_mtx : 221 ms
[OGL LOG] matrix is not yet sorted, sorting host matrix
[OGL LOG] sort_host_mtx_sparsity_pattern : 181 ms
[OGL LOG] sort_host_mtx : 119 ms
[OGL LOG] init_preconditioner : 0 ms
[OGL LOG] solve : 236 ms
nonehipGKOCG:  Solving for p, Initial residual = 0.709854, Final residual = 9.94198e-05, No Iterations 415
linear solve p 1247307
time step continuity errors : sum local = 7.39201e-08, global = -7.77394e-21, cumulative = 4.00239e-20
ExecutionTime = 36.9 s  ClockTime = 34 s

Time = 0.006

Courant Number mean: 0.118979 max: 0.944965
DILUPBiCGStab:  Solving for Ux, Initial residual = 0.0203435, Final residual = 0.000433559, No Iterations 5
DILUPBiCGStab:  Solving for Uy, Initial residual = 0.0819496, Final residual = 0.00163634, No Iterations 5
DILUPBiCGStab:  Solving for Uz, Initial residual = 0.435508, Final residual = 0.00700303, No Iterations 5
linear solve U 818780
[OGL LOG] init_host_sparsity_pattern : 441 ms
[OGL LOG] matrix not stored update host matrix
[OGL LOG] update_host_mtx : 222 ms
[OGL LOG] matrix is not yet sorted, sorting host matrix
[OGL LOG] sort_host_mtx_sparsity_pattern : 181 ms
[OGL LOG] sort_host_mtx : 117 ms
[OGL LOG] init_preconditioner : 0 ms
[OGL LOG] solve : 236 ms
nonehipGKOCG:  Solving for p, Initial residual = 0.661677, Final residual = 9.9426e-05, No Iterations 414
linear solve p 1236798
time step continuity errors : sum local = 7.22375e-08, global = 1.8352e-21, cumulative = 4.18591e-20
[OGL LOG] init_host_sparsity_pattern : 449 ms
[OGL LOG] matrix not stored update host matrix
[OGL LOG] update_host_mtx : 221 ms
[OGL LOG] matrix is not yet sorted, sorting host matrix
[OGL LOG] sort_host_mtx_sparsity_pattern : 187 ms
[OGL LOG] sort_host_mtx : 119 ms
[OGL LOG] init_preconditioner : 0 ms
[OGL LOG] solve : 233 ms
nonehipGKOCG:  Solving for p, Initial residual = 0.600805, Final residual = 9.87335e-05, No Iterations 411
linear solve p 1250589
time step continuity errors : sum local = 7.03777e-08, global = -1.6242e-20, cumulative = 2.56171e-20
ExecutionTime = 41 s  ClockTime = 38 s

Time = 0.007

Courant Number mean: 0.12661 max: 0.947975
DILUPBiCGStab:  Solving for Ux, Initial residual = 0.0176481, Final residual = 0.000355204, No Iterations 5
DILUPBiCGStab:  Solving for Uy, Initial residual = 0.055722, Final residual = 0.00126654, No Iterations 5
DILUPBiCGStab:  Solving for Uz, Initial residual = 0.380335, Final residual = 0.00587201, No Iterations 5
linear solve U 818121
[OGL LOG] init_host_sparsity_pattern : 451 ms
[OGL LOG] matrix not stored update host matrix
[OGL LOG] update_host_mtx : 221 ms
[OGL LOG] matrix is not yet sorted, sorting host matrix
[OGL LOG] sort_host_mtx_sparsity_pattern : 184 ms
[OGL LOG] sort_host_mtx : 118 ms
[OGL LOG] init_preconditioner : 0 ms
[OGL LOG] solve : 212 ms
nonehipGKOCG:  Solving for p, Initial residual = 0.659781, Final residual = 9.91433e-05, No Iterations 375
linear solve p 1225577
time step continuity errors : sum local = 5.83646e-08, global = -3.23169e-20, cumulative = -6.69972e-21
[OGL LOG] init_host_sparsity_pattern : 439 ms
[OGL LOG] matrix not stored update host matrix
[OGL LOG] update_host_mtx : 221 ms
[OGL LOG] matrix is not yet sorted, sorting host matrix
[OGL LOG] sort_host_mtx_sparsity_pattern : 210 ms
[OGL LOG] sort_host_mtx : 113 ms
[OGL LOG] init_preconditioner : 0 ms
[OGL LOG] solve : 212 ms
nonehipGKOCG:  Solving for p, Initial residual = 0.602217, Final residual = 9.79858e-05, No Iterations 374
linear solve p 1235648
time step continuity errors : sum local = 5.74121e-08, global = -7.09716e-21, cumulative = -1.37969e-20
ExecutionTime = 45.06 s  ClockTime = 42 s

Time = 0.008

Courant Number mean: 0.132627 max: 0.951942
DILUPBiCGStab:  Solving for Ux, Initial residual = 0.0129784, Final residual = 0.000262088, No Iterations 5
DILUPBiCGStab:  Solving for Uy, Initial residual = 0.0477263, Final residual = 0.00100305, No Iterations 5
DILUPBiCGStab:  Solving for Uz, Initial residual = 0.287305, Final residual = 0.00449058, No Iterations 5
linear solve U 816463
[OGL LOG] init_host_sparsity_pattern : 451 ms
[OGL LOG] matrix not stored update host matrix
[OGL LOG] update_host_mtx : 221 ms
[OGL LOG] matrix is not yet sorted, sorting host matrix
[OGL LOG] sort_host_mtx_sparsity_pattern : 182 ms
[OGL LOG] sort_host_mtx : 118 ms
[OGL LOG] init_preconditioner : 0 ms
[OGL LOG] solve : 227 ms
nonehipGKOCG:  Solving for p, Initial residual = 0.567226, Final residual = 9.99597e-05, No Iterations 401
linear solve p 1237321
time step continuity errors : sum local = 6.16177e-08, global = -1.1841e-20, cumulative = -2.56379e-20
[OGL LOG] init_host_sparsity_pattern : 448 ms
[OGL LOG] matrix not stored update host matrix
[OGL LOG] update_host_mtx : 230 ms
[OGL LOG] matrix is not yet sorted, sorting host matrix
[OGL LOG] sort_host_mtx_sparsity_pattern : 191 ms
[OGL LOG] sort_host_mtx : 112 ms
[OGL LOG] init_preconditioner : 0 ms
[OGL LOG] solve : 219 ms
nonehipGKOCG:  Solving for p, Initial residual = 0.509491, Final residual = 9.92596e-05, No Iterations 382
linear solve p 1239994
time step continuity errors : sum local = 5.79352e-08, global = -7.57692e-22, cumulative = -2.63955e-20
ExecutionTime = 49.14 s  ClockTime = 46 s

Time = 0.009

Courant Number mean: 0.138049 max: 0.953444
DILUPBiCGStab:  Solving for Ux, Initial residual = 0.0114572, Final residual = 0.000213913, No Iterations 5
DILUPBiCGStab:  Solving for Uy, Initial residual = 0.0357581, Final residual = 0.000794872, No Iterations 5
DILUPBiCGStab:  Solving for Uz, Initial residual = 0.245539, Final residual = 0.00385254, No Iterations 5
linear solve U 820406
[OGL LOG] init_host_sparsity_pattern : 451 ms
[OGL LOG] matrix not stored update host matrix
[OGL LOG] update_host_mtx : 221 ms
[OGL LOG] matrix is not yet sorted, sorting host matrix
[OGL LOG] sort_host_mtx_sparsity_pattern : 195 ms
[OGL LOG] sort_host_mtx : 118 ms
[OGL LOG] init_preconditioner : 0 ms
[OGL LOG] solve : 215 ms
nonehipGKOCG:  Solving for p, Initial residual = 0.555994, Final residual = 9.83728e-05, No Iterations 381
linear solve p 1238968
time step continuity errors : sum local = 5.28669e-08, global = 1.93587e-20, cumulative = -7.03684e-21
[OGL LOG] init_host_sparsity_pattern : 450 ms
[OGL LOG] matrix not stored update host matrix
[OGL LOG] update_host_mtx : 221 ms
[OGL LOG] matrix is not yet sorted, sorting host matrix
[OGL LOG] sort_host_mtx_sparsity_pattern : 189 ms
[OGL LOG] sort_host_mtx : 119 ms
[OGL LOG] init_preconditioner : 0 ms
[OGL LOG] solve : 212 ms
nonehipGKOCG:  Solving for p, Initial residual = 0.496563, Final residual = 9.84749e-05, No Iterations 375
linear solve p 1230154
time step continuity errors : sum local = 4.86381e-08, global = -9.35103e-21, cumulative = -1.63879e-20
ExecutionTime = 53.2 s  ClockTime = 50 s

Time = 0.01

Courant Number mean: 0.142642 max: 0.955916
DILUPBiCGStab:  Solving for Ux, Initial residual = 0.00901441, Final residual = 0.000162866, No Iterations 5
DILUPBiCGStab:  Solving for Uy, Initial residual = 0.0309002, Final residual = 0.00063639, No Iterations 5
DILUPBiCGStab:  Solving for Uz, Initial residual = 0.191209, Final residual = 0.00313467, No Iterations 5
linear solve U 818254
[OGL LOG] init_host_sparsity_pattern : 440 ms
[OGL LOG] matrix not stored update host matrix
[OGL LOG] update_host_mtx : 221 ms
[OGL LOG] matrix is not yet sorted, sorting host matrix
[OGL LOG] sort_host_mtx_sparsity_pattern : 184 ms
[OGL LOG] sort_host_mtx : 112 ms
[OGL LOG] init_preconditioner : 0 ms
[OGL LOG] solve : 428 ms
nonehipGKOCG:  Solving for p, Initial residual = 0.477449, Final residual = 9.72396e-05, No Iterations 759
linear solve p 1423345
time step continuity errors : sum local = 4.62959e-08, global = 3.82965e-21, cumulative = -1.25582e-20
[OGL LOG] init_host_sparsity_pattern : 450 ms
[OGL LOG] matrix not stored update host matrix
[OGL LOG] update_host_mtx : 221 ms
[OGL LOG] matrix is not yet sorted, sorting host matrix
[OGL LOG] sort_host_mtx_sparsity_pattern : 213 ms
[OGL LOG] sort_host_mtx : 117 ms
[OGL LOG] init_preconditioner : 0 ms
[OGL LOG] solve : 431 ms
nonehipGKOCG:  Solving for p, Initial residual = 0.424625, Final residual = 9.87845e-05, No Iterations 758
linear solve p 1472425
time step continuity errors : sum local = 4.68733e-08, global = -8.5353e-21, cumulative = -2.10935e-20
ExecutionTime = 57.97 s  ClockTime = 54 s

End

