/*---------------------------------------------------------------------------*\
  =========                 |
  \\      /  F ield         | OpenFOAM: The Open Source CFD Toolbox
   \\    /   O peration     | Website:  https://openfoam.org
    \\  /    A nd           | Version:  8
     \\/     M anipulation  |
\*---------------------------------------------------------------------------*/
Build  : 8-40a5a48f630f
Exec   : icoFoam
Date   : Jul 28 2021
Time   : 12:24:57
Host   : "uc2n478.localdomain"
PID    : 3459970
I/O    : uncollated
Case   : /pfs/data5/home/kit/scc/nq7776/code/OBR/lidDrivenCavity3D/Variation_mesh/40/Variation_matrix_solver/BiCGStab_NoPrecond_OMP/base
nProcs : 1
sigFpe : Enabling floating point exception trapping (FOAM_SIGFPE).
fileModificationChecking : Monitoring run-time modified files using timeStampMaster (fileModificationSkew 10)
allowSystemOperations : Allowing user-supplied system call operations

// * * * * * * * * * * * * * * * * * * * * * * * * * * * * * * * * * * * * * //
Create time

Create mesh for time = 0

Reading transportProperties

Reading field p

Reading field U

Reading/calculating face flux field phi


Starting time loop

Time = 0.001

Courant Number mean: 0 max: 0
nonePBiCGStab:  Solving for Ux, Initial residual = 1, Final residual = 0.0197517, No Iterations 5
nonePBiCGStab:  Solving for Uy, Initial residual = 0, Final residual = 0, No Iterations 0
nonePBiCGStab:  Solving for Uz, Initial residual = 0, Final residual = 0, No Iterations 0
linear solve U 15
[OGL LOG] init_host_sparsity_pattern : 19 ms
[OGL LOG] matrix not stored update host matrix
[OGL LOG] update_host_mtx : 10 ms
[OGL LOG] matrix is not yet sorted, compute sorting idxs
[OGL LOG] compute_sort : 525 ms
[OGL LOG] matrix is not yet sorted, sorting host matrix
[OGL LOG] sort_host_mtx_sparsity_pattern : 13 ms
[OGL LOG] sort_host_mtx : 7 ms
[OGL LOG] init_preconditioner : 0 ms
[OGL LOG] solve : 953 ms
noneompGKOBiCGStab:  Solving for p, Initial residual = 1, Final residual = 8.58855e-05, No Iterations 253
linear solve p 1546
time step continuity errors : sum local = 1.25022e-07, global = -1.80073e-20, cumulative = -1.80073e-20
[OGL LOG] init_host_sparsity_pattern : 19 ms
[OGL LOG] matrix not stored update host matrix
[OGL LOG] update_host_mtx : 10 ms
[OGL LOG] matrix is not yet sorted, sorting host matrix
[OGL LOG] sort_host_mtx_sparsity_pattern : 13 ms
[OGL LOG] sort_host_mtx : 6 ms
[OGL LOG] init_preconditioner : 0 ms
[OGL LOG] solve : 949 ms
noneompGKOBiCGStab:  Solving for p, Initial residual = 0.598499, Final residual = 8.91669e-05, No Iterations 251
linear solve p 1008
time step continuity errors : sum local = 5.66839e-07, global = 1.48371e-20, cumulative = -3.17017e-21
ExecutionTime = 2.87 s  ClockTime = 3 s

Time = 0.002

Courant Number mean: 0.0210264 max: 0.237017
nonePBiCGStab:  Solving for Ux, Initial residual = 0.177809, Final residual = 0.00672024, No Iterations 5
nonePBiCGStab:  Solving for Uy, Initial residual = 0.294124, Final residual = 0.00781127, No Iterations 5
nonePBiCGStab:  Solving for Uz, Initial residual = 0.942914, Final residual = 0.0382682, No Iterations 5
linear solve U 29
[OGL LOG] init_host_sparsity_pattern : 18 ms
[OGL LOG] matrix not stored update host matrix
[OGL LOG] update_host_mtx : 10 ms
[OGL LOG] matrix is not yet sorted, sorting host matrix
[OGL LOG] sort_host_mtx_sparsity_pattern : 13 ms
[OGL LOG] sort_host_mtx : 6 ms
[OGL LOG] init_preconditioner : 0 ms
[OGL LOG] solve : 871 ms
noneompGKOBiCGStab:  Solving for p, Initial residual = 0.457961, Final residual = 9.96473e-05, No Iterations 232
linear solve p 928
time step continuity errors : sum local = 1.97844e-07, global = 4.76554e-21, cumulative = 1.59537e-21
[OGL LOG] init_host_sparsity_pattern : 18 ms
[OGL LOG] matrix not stored update host matrix
[OGL LOG] update_host_mtx : 8 ms
[OGL LOG] matrix is not yet sorted, sorting host matrix
[OGL LOG] sort_host_mtx_sparsity_pattern : 13 ms
[OGL LOG] sort_host_mtx : 6 ms
[OGL LOG] init_preconditioner : 0 ms
[OGL LOG] solve : 876 ms
noneompGKOBiCGStab:  Solving for p, Initial residual = 0.361142, Final residual = 8.13107e-05, No Iterations 234
linear solve p 932
time step continuity errors : sum local = 2.06289e-07, global = -1.34248e-20, cumulative = -1.18295e-20
ExecutionTime = 4.79 s  ClockTime = 5 s

Time = 0.003

Courant Number mean: 0.0321026 max: 0.305905
nonePBiCGStab:  Solving for Ux, Initial residual = 0.0656042, Final residual = 0.00125527, No Iterations 5
nonePBiCGStab:  Solving for Uy, Initial residual = 0.10812, Final residual = 0.00180943, No Iterations 5
nonePBiCGStab:  Solving for Uz, Initial residual = 0.201468, Final residual = 0.00961715, No Iterations 5
linear solve U 29
[OGL LOG] init_host_sparsity_pattern : 18 ms
[OGL LOG] matrix not stored update host matrix
[OGL LOG] update_host_mtx : 10 ms
[OGL LOG] matrix is not yet sorted, sorting host matrix
[OGL LOG] sort_host_mtx_sparsity_pattern : 13 ms
[OGL LOG] sort_host_mtx : 6 ms
[OGL LOG] init_preconditioner : 0 ms
[OGL LOG] solve : 844 ms
noneompGKOBiCGStab:  Solving for p, Initial residual = 0.164815, Final residual = 8.63862e-05, No Iterations 225
linear solve p 901
time step continuity errors : sum local = 1.10913e-07, global = 2.99094e-21, cumulative = -8.83852e-21
[OGL LOG] init_host_sparsity_pattern : 18 ms
[OGL LOG] matrix not stored update host matrix
[OGL LOG] update_host_mtx : 8 ms
[OGL LOG] matrix is not yet sorted, sorting host matrix
[OGL LOG] sort_host_mtx_sparsity_pattern : 13 ms
[OGL LOG] sort_host_mtx : 6 ms
[OGL LOG] init_preconditioner : 0 ms
[OGL LOG] solve : 368 ms
noneompGKOBiCGStab:  Solving for p, Initial residual = 0.1291, Final residual = 9.84069e-05, No Iterations 97
linear solve p 424
time step continuity errors : sum local = 1.3039e-07, global = -1.05583e-20, cumulative = -1.93968e-20
ExecutionTime = 6.17 s  ClockTime = 6 s

Time = 0.004

Courant Number mean: 0.0386755 max: 0.327553
nonePBiCGStab:  Solving for Ux, Initial residual = 0.038885, Final residual = 0.000588277, No Iterations 5
nonePBiCGStab:  Solving for Uy, Initial residual = 0.0670237, Final residual = 0.000651603, No Iterations 5
nonePBiCGStab:  Solving for Uz, Initial residual = 0.134775, Final residual = 0.00455213, No Iterations 5
linear solve U 28
[OGL LOG] init_host_sparsity_pattern : 19 ms
[OGL LOG] matrix not stored update host matrix
[OGL LOG] update_host_mtx : 10 ms
[OGL LOG] matrix is not yet sorted, sorting host matrix
[OGL LOG] sort_host_mtx_sparsity_pattern : 13 ms
[OGL LOG] sort_host_mtx : 6 ms
[OGL LOG] init_preconditioner : 0 ms
[OGL LOG] solve : 829 ms
noneompGKOBiCGStab:  Solving for p, Initial residual = 0.0862192, Final residual = 9.5203e-05, No Iterations 220
linear solve p 888
time step continuity errors : sum local = 1.13867e-07, global = -1.78883e-20, cumulative = -3.72851e-20
[OGL LOG] init_host_sparsity_pattern : 19 ms
[OGL LOG] matrix not stored update host matrix
[OGL LOG] update_host_mtx : 10 ms
[OGL LOG] matrix is not yet sorted, sorting host matrix
[OGL LOG] sort_host_mtx_sparsity_pattern : 13 ms
[OGL LOG] sort_host_mtx : 6 ms
[OGL LOG] init_preconditioner : 0 ms
[OGL LOG] solve : 809 ms
noneompGKOBiCGStab:  Solving for p, Initial residual = 0.0665138, Final residual = 9.00785e-05, No Iterations 215
linear solve p 868
time step continuity errors : sum local = 1.29635e-07, global = 8.74017e-21, cumulative = -2.85449e-20
ExecutionTime = 7.98 s  ClockTime = 8 s

Time = 0.005

Courant Number mean: 0.04348 max: 0.337869
nonePBiCGStab:  Solving for Ux, Initial residual = 0.0269355, Final residual = 0.000343193, No Iterations 5
nonePBiCGStab:  Solving for Uy, Initial residual = 0.0468139, Final residual = 0.000500246, No Iterations 5
nonePBiCGStab:  Solving for Uz, Initial residual = 0.0963927, Final residual = 0.0029326, No Iterations 5
linear solve U 28
[OGL LOG] init_host_sparsity_pattern : 19 ms
[OGL LOG] matrix not stored update host matrix
[OGL LOG] update_host_mtx : 10 ms
[OGL LOG] matrix is not yet sorted, sorting host matrix
[OGL LOG] sort_host_mtx_sparsity_pattern : 13 ms
[OGL LOG] sort_host_mtx : 6 ms
[OGL LOG] init_preconditioner : 0 ms
[OGL LOG] solve : 780 ms
noneompGKOBiCGStab:  Solving for p, Initial residual = 0.044953, Final residual = 9.93604e-05, No Iterations 208
linear solve p 838
time step continuity errors : sum local = 1.00503e-07, global = 2.73955e-20, cumulative = -1.14942e-21
[OGL LOG] init_host_sparsity_pattern : 19 ms
[OGL LOG] matrix not stored update host matrix
[OGL LOG] update_host_mtx : 10 ms
[OGL LOG] matrix is not yet sorted, sorting host matrix
[OGL LOG] sort_host_mtx_sparsity_pattern : 13 ms
[OGL LOG] sort_host_mtx : 6 ms
[OGL LOG] init_preconditioner : 0 ms
[OGL LOG] solve : 307 ms
noneompGKOBiCGStab:  Solving for p, Initial residual = 0.0360229, Final residual = 8.07822e-05, No Iterations 81
linear solve p 366
time step continuity errors : sum local = 8.98245e-08, global = -1.22913e-21, cumulative = -2.37854e-21
ExecutionTime = 9.24 s  ClockTime = 9 s

Time = 0.006

Courant Number mean: 0.0471992 max: 0.34403
nonePBiCGStab:  Solving for Ux, Initial residual = 0.0205018, Final residual = 0.000217001, No Iterations 5
nonePBiCGStab:  Solving for Uy, Initial residual = 0.0356011, Final residual = 0.000261953, No Iterations 5
nonePBiCGStab:  Solving for Uz, Initial residual = 0.071297, Final residual = 0.0018997, No Iterations 5
linear solve U 29
[OGL LOG] init_host_sparsity_pattern : 19 ms
[OGL LOG] matrix not stored update host matrix
[OGL LOG] update_host_mtx : 10 ms
[OGL LOG] matrix is not yet sorted, sorting host matrix
[OGL LOG] sort_host_mtx_sparsity_pattern : 13 ms
[OGL LOG] sort_host_mtx : 6 ms
[OGL LOG] init_preconditioner : 0 ms
[OGL LOG] solve : 828 ms
noneompGKOBiCGStab:  Solving for p, Initial residual = 0.030417, Final residual = 1.73417e-05, No Iterations 217
linear solve p 886
time step continuity errors : sum local = 1.10112e-07, global = 2.45831e-20, cumulative = 2.22045e-20
[OGL LOG] init_host_sparsity_pattern : 19 ms
[OGL LOG] matrix not stored update host matrix
[OGL LOG] update_host_mtx : 10 ms
[OGL LOG] matrix is not yet sorted, sorting host matrix
[OGL LOG] sort_host_mtx_sparsity_pattern : 13 ms
[OGL LOG] sort_host_mtx : 6 ms
[OGL LOG] init_preconditioner : 0 ms
[OGL LOG] solve : 349 ms
noneompGKOBiCGStab:  Solving for p, Initial residual = 0.024823, Final residual = 9.65109e-05, No Iterations 92
linear solve p 407
time step continuity errors : sum local = 1.20886e-07, global = 5.11799e-22, cumulative = 2.27163e-20
ExecutionTime = 10.6 s  ClockTime = 11 s

Time = 0.007

Courant Number mean: 0.0502319 max: 0.348256
nonePBiCGStab:  Solving for Ux, Initial residual = 0.0162283, Final residual = 0.000159073, No Iterations 5
nonePBiCGStab:  Solving for Uy, Initial residual = 0.0286856, Final residual = 0.000256674, No Iterations 5
nonePBiCGStab:  Solving for Uz, Initial residual = 0.0598794, Final residual = 0.00162051, No Iterations 5
linear solve U 29
[OGL LOG] init_host_sparsity_pattern : 19 ms
[OGL LOG] matrix not stored update host matrix
[OGL LOG] update_host_mtx : 10 ms
[OGL LOG] matrix is not yet sorted, sorting host matrix
[OGL LOG] sort_host_mtx_sparsity_pattern : 14 ms
[OGL LOG] sort_host_mtx : 6 ms
[OGL LOG] init_preconditioner : 0 ms
[OGL LOG] solve : 787 ms
noneompGKOBiCGStab:  Solving for p, Initial residual = 0.023763, Final residual = 9.81853e-05, No Iterations 210
linear solve p 847
time step continuity errors : sum local = 7.17308e-08, global = -1.15301e-21, cumulative = 2.15633e-20
[OGL LOG] init_host_sparsity_pattern : 19 ms
[OGL LOG] matrix not stored update host matrix
[OGL LOG] update_host_mtx : 10 ms
[OGL LOG] matrix is not yet sorted, sorting host matrix
[OGL LOG] sort_host_mtx_sparsity_pattern : 13 ms
[OGL LOG] sort_host_mtx : 6 ms
[OGL LOG] init_preconditioner : 0 ms
[OGL LOG] solve : 322 ms
noneompGKOBiCGStab:  Solving for p, Initial residual = 0.0197787, Final residual = 9.7289e-05, No Iterations 85
linear solve p 380
time step continuity errors : sum local = 1.27133e-07, global = 3.33742e-22, cumulative = 2.18971e-20
ExecutionTime = 11.88 s  ClockTime = 12 s

Time = 0.008

Courant Number mean: 0.0528016 max: 0.351371
nonePBiCGStab:  Solving for Ux, Initial residual = 0.0134205, Final residual = 0.000122538, No Iterations 5
nonePBiCGStab:  Solving for Uy, Initial residual = 0.0235355, Final residual = 0.00016701, No Iterations 5
nonePBiCGStab:  Solving for Uz, Initial residual = 0.050036, Final residual = 0.0013, No Iterations 5
linear solve U 28
[OGL LOG] init_host_sparsity_pattern : 19 ms
[OGL LOG] matrix not stored update host matrix
[OGL LOG] update_host_mtx : 10 ms
[OGL LOG] matrix is not yet sorted, sorting host matrix
[OGL LOG] sort_host_mtx_sparsity_pattern : 14 ms
[OGL LOG] sort_host_mtx : 7 ms
[OGL LOG] init_preconditioner : 0 ms
[OGL LOG] solve : 722 ms
noneompGKOBiCGStab:  Solving for p, Initial residual = 0.0190006, Final residual = 9.69591e-05, No Iterations 192
linear solve p 781
time step continuity errors : sum local = 1.08548e-07, global = -9.20678e-21, cumulative = 1.26903e-20
[OGL LOG] init_host_sparsity_pattern : 19 ms
[OGL LOG] matrix not stored update host matrix
[OGL LOG] update_host_mtx : 10 ms
[OGL LOG] matrix is not yet sorted, sorting host matrix
[OGL LOG] sort_host_mtx_sparsity_pattern : 13 ms
[OGL LOG] sort_host_mtx : 6 ms
[OGL LOG] init_preconditioner : 0 ms
[OGL LOG] solve : 307 ms
noneompGKOBiCGStab:  Solving for p, Initial residual = 0.0159663, Final residual = 9.03362e-05, No Iterations 81
linear solve p 366
time step continuity errors : sum local = 9.88177e-08, global = 2.65279e-21, cumulative = 1.53431e-20
ExecutionTime = 13.08 s  ClockTime = 13 s

Time = 0.009

Courant Number mean: 0.0549874 max: 0.35378
nonePBiCGStab:  Solving for Ux, Initial residual = 0.0111738, Final residual = 7.9072e-05, No Iterations 5
nonePBiCGStab:  Solving for Uy, Initial residual = 0.0201162, Final residual = 0.00014968, No Iterations 5
nonePBiCGStab:  Solving for Uz, Initial residual = 0.0442001, Final residual = 0.0011467, No Iterations 5
linear solve U 28
[OGL LOG] init_host_sparsity_pattern : 19 ms
[OGL LOG] matrix not stored update host matrix
[OGL LOG] update_host_mtx : 10 ms
[OGL LOG] matrix is not yet sorted, sorting host matrix
[OGL LOG] sort_host_mtx_sparsity_pattern : 13 ms
[OGL LOG] sort_host_mtx : 6 ms
[OGL LOG] init_preconditioner : 0 ms
[OGL LOG] solve : 699 ms
noneompGKOBiCGStab:  Solving for p, Initial residual = 0.016251, Final residual = 9.83019e-05, No Iterations 186
linear solve p 758
time step continuity errors : sum local = 8.74797e-08, global = -1.08577e-20, cumulative = 4.48543e-21
[OGL LOG] init_host_sparsity_pattern : 19 ms
[OGL LOG] matrix not stored update host matrix
[OGL LOG] update_host_mtx : 10 ms
[OGL LOG] matrix is not yet sorted, sorting host matrix
[OGL LOG] sort_host_mtx_sparsity_pattern : 13 ms
[OGL LOG] sort_host_mtx : 6 ms
[OGL LOG] init_preconditioner : 0 ms
[OGL LOG] solve : 309 ms
noneompGKOBiCGStab:  Solving for p, Initial residual = 0.0136675, Final residual = 9.27586e-05, No Iterations 82
linear solve p 367
time step continuity errors : sum local = 1.03937e-07, global = 2.90561e-20, cumulative = 3.35416e-20
ExecutionTime = 14.27 s  ClockTime = 14 s

Time = 0.01

Courant Number mean: 0.0568698 max: 0.35571
nonePBiCGStab:  Solving for Ux, Initial residual = 0.00963143, Final residual = 6.29456e-05, No Iterations 5
nonePBiCGStab:  Solving for Uy, Initial residual = 0.0170871, Final residual = 0.000118788, No Iterations 5
nonePBiCGStab:  Solving for Uz, Initial residual = 0.0377784, Final residual = 0.000911476, No Iterations 5
linear solve U 28
[OGL LOG] init_host_sparsity_pattern : 19 ms
[OGL LOG] matrix not stored update host matrix
[OGL LOG] update_host_mtx : 10 ms
[OGL LOG] matrix is not yet sorted, sorting host matrix
[OGL LOG] sort_host_mtx_sparsity_pattern : 13 ms
[OGL LOG] sort_host_mtx : 6 ms
[OGL LOG] init_preconditioner : 0 ms
[OGL LOG] solve : 704 ms
noneompGKOBiCGStab:  Solving for p, Initial residual = 0.0137128, Final residual = 9.70067e-05, No Iterations 188
linear solve p 763
time step continuity errors : sum local = 8.59602e-08, global = 1.95513e-20, cumulative = 5.30929e-20
[OGL LOG] init_host_sparsity_pattern : 19 ms
[OGL LOG] matrix not stored update host matrix
[OGL LOG] update_host_mtx : 10 ms
[OGL LOG] matrix is not yet sorted, sorting host matrix
[OGL LOG] sort_host_mtx_sparsity_pattern : 13 ms
[OGL LOG] sort_host_mtx : 6 ms
[OGL LOG] init_preconditioner : 0 ms
[OGL LOG] solve : 300 ms
noneompGKOBiCGStab:  Solving for p, Initial residual = 0.011616, Final residual = 9.54795e-05, No Iterations 79
linear solve p 359
time step continuity errors : sum local = 1.00635e-07, global = -3.22081e-21, cumulative = 4.98721e-20
ExecutionTime = 15.45 s  ClockTime = 16 s

End

