/*---------------------------------------------------------------------------*\
  =========                 |
  \\      /  F ield         | OpenFOAM: The Open Source CFD Toolbox
   \\    /   O peration     | Website:  https://openfoam.org
    \\  /    A nd           | Version:  8
     \\/     M anipulation  |
\*---------------------------------------------------------------------------*/
Build  : 8-14d69e1ee166
Exec   : icoFoam
Date   : Jul 29 2021
Time   : 06:45:15
Host   : "guyot.icl.utk.edu"
PID    : 183991
I/O    : uncollated
Case   : /home/greole/code/OBR/lidDrivenCavity3D/Variation_mesh/80/Variation_matrix_solver/CG_DIC_Serial/base
nProcs : 1
sigFpe : Enabling floating point exception trapping (FOAM_SIGFPE).
fileModificationChecking : Monitoring run-time modified files using timeStampMaster (fileModificationSkew 10)
allowSystemOperations : Allowing user-supplied system call operations

// * * * * * * * * * * * * * * * * * * * * * * * * * * * * * * * * * * * * * //
Create time

Create mesh for time = 0

Reading transportProperties

Reading field p

Reading field U

Reading/calculating face flux field phi


Starting time loop

Time = 0.001

Courant Number mean: 0 max: 0
DILUPBiCGStab:  Solving for Ux, Initial residual = 1, Final residual = 0.00289442, No Iterations 5
DILUPBiCGStab:  Solving for Uy:  solution singularity
DILUPBiCGStab:  Solving for Uz:  solution singularity
linear solve U 195858
DICPCG:  Solving for p, Initial residual = 1, Final residual = 9.5246e-05, No Iterations 201
linear solve p 2023845
time step continuity errors : sum local = 5.58596e-08, global = 1.61743e-20, cumulative = 1.61743e-20
DICPCG:  Solving for p, Initial residual = 0.745906, Final residual = 9.93703e-05, No Iterations 199
linear solve p 2013077
time step continuity errors : sum local = 7.58298e-08, global = 8.83569e-21, cumulative = 2.501e-20
ExecutionTime = 6.54 s  ClockTime = 7 s

Time = 0.002

Courant Number mean: 0.0451638 max: 0.613749
DILUPBiCGStab:  Solving for Ux, Initial residual = 0.146312, Final residual = 0.00105951, No Iterations 5
DILUPBiCGStab:  Solving for Uy, Initial residual = 0.38522, Final residual = 0.00246577, No Iterations 5
DILUPBiCGStab:  Solving for Uz, Initial residual = 0.987337, Final residual = 0.00713118, No Iterations 5
linear solve U 384222
DICPCG:  Solving for p, Initial residual = 0.723974, Final residual = 8.07599e-05, No Iterations 197
linear solve p 2002877
time step continuity errors : sum local = 7.28718e-08, global = 2.10364e-21, cumulative = 2.71136e-20
DICPCG:  Solving for p, Initial residual = 0.656833, Final residual = 8.87013e-05, No Iterations 196
linear solve p 1980097
time step continuity errors : sum local = 8.17206e-08, global = -6.53353e-21, cumulative = 2.05801e-20
ExecutionTime = 11.12 s  ClockTime = 11 s

Time = 0.003

Courant Number mean: 0.0679251 max: 0.721708
DILUPBiCGStab:  Solving for Ux, Initial residual = 0.055902, Final residual = 0.000353232, No Iterations 5
DILUPBiCGStab:  Solving for Uy, Initial residual = 0.144773, Final residual = 0.000951909, No Iterations 5
DILUPBiCGStab:  Solving for Uz, Initial residual = 0.6868, Final residual = 0.00456714, No Iterations 5
linear solve U 387902
DICPCG:  Solving for p, Initial residual = 0.705332, Final residual = 9.32254e-05, No Iterations 109
linear solve p 1118701
time step continuity errors : sum local = 7.62353e-08, global = -1.57016e-21, cumulative = 1.90099e-20
DICPCG:  Solving for p, Initial residual = 0.6636, Final residual = 9.30351e-05, No Iterations 106
linear solve p 1077448
time step continuity errors : sum local = 6.67543e-08, global = -1.41851e-20, cumulative = 4.82482e-21
ExecutionTime = 13.93 s  ClockTime = 14 s

Time = 0.004

Courant Number mean: 0.0793946 max: 0.728861
DILUPBiCGStab:  Solving for Ux, Initial residual = 0.0295942, Final residual = 0.000182208, No Iterations 5
DILUPBiCGStab:  Solving for Uy, Initial residual = 0.100116, Final residual = 0.000584256, No Iterations 5
DILUPBiCGStab:  Solving for Uz, Initial residual = 0.3917, Final residual = 0.00217043, No Iterations 5
linear solve U 387708
DICPCG:  Solving for p, Initial residual = 0.527117, Final residual = 9.09865e-05, No Iterations 106
linear solve p 1070012
time step continuity errors : sum local = 5.56278e-08, global = 3.14781e-23, cumulative = 4.85629e-21
DICPCG:  Solving for p, Initial residual = 0.463346, Final residual = 9.27313e-05, No Iterations 105
linear solve p 1087005
time step continuity errors : sum local = 5.68077e-08, global = -3.63906e-21, cumulative = 1.21723e-21
ExecutionTime = 16.7 s  ClockTime = 17 s

Time = 0.005

Courant Number mean: 0.0889341 max: 0.739438
DILUPBiCGStab:  Solving for Ux, Initial residual = 0.0218913, Final residual = 0.000116431, No Iterations 5
DILUPBiCGStab:  Solving for Uy, Initial residual = 0.0522689, Final residual = 0.000204416, No Iterations 5
DILUPBiCGStab:  Solving for Uz, Initial residual = 0.183828, Final residual = 0.00115731, No Iterations 5
linear solve U 385126
DICPCG:  Solving for p, Initial residual = 0.462123, Final residual = 8.74318e-05, No Iterations 192
linear solve p 1957148
time step continuity errors : sum local = 4.113e-08, global = 5.31514e-21, cumulative = 6.53237e-21
DICPCG:  Solving for p, Initial residual = 0.409514, Final residual = 9.38099e-05, No Iterations 191
linear solve p 1939270
time step continuity errors : sum local = 4.36827e-08, global = -1.56617e-20, cumulative = -9.12934e-21
ExecutionTime = 21.2 s  ClockTime = 21 s

Time = 0.006

Courant Number mean: 0.0960652 max: 0.745153
DILUPBiCGStab:  Solving for Ux, Initial residual = 0.0146604, Final residual = 6.87898e-05, No Iterations 5
DILUPBiCGStab:  Solving for Uy, Initial residual = 0.0417253, Final residual = 0.000169425, No Iterations 5
DILUPBiCGStab:  Solving for Uz, Initial residual = 0.139758, Final residual = 0.00081147, No Iterations 5
linear solve U 387157
DICPCG:  Solving for p, Initial residual = 0.316796, Final residual = 9.95793e-05, No Iterations 91
linear solve p 924981
time step continuity errors : sum local = 4.85959e-08, global = 7.66357e-21, cumulative = -1.46577e-21
DICPCG:  Solving for p, Initial residual = 0.272198, Final residual = 9.87821e-05, No Iterations 90
linear solve p 923216
time step continuity errors : sum local = 4.53199e-08, global = 1.25798e-20, cumulative = 1.11141e-20
ExecutionTime = 23.66 s  ClockTime = 24 s

Time = 0.007

Courant Number mean: 0.102039 max: 0.748858
DILUPBiCGStab:  Solving for Ux, Initial residual = 0.0119929, Final residual = 4.82713e-05, No Iterations 5
DILUPBiCGStab:  Solving for Uy, Initial residual = 0.0290043, Final residual = 7.93105e-05, No Iterations 5
DILUPBiCGStab:  Solving for Uz, Initial residual = 0.07332, Final residual = 0.000392643, No Iterations 5
linear solve U 386642
DICPCG:  Solving for p, Initial residual = 0.254591, Final residual = 9.8502e-05, No Iterations 88
linear solve p 896241
time step continuity errors : sum local = 4.08346e-08, global = -8.34142e-21, cumulative = 2.77264e-21
DICPCG:  Solving for p, Initial residual = 0.218126, Final residual = 9.96686e-05, No Iterations 87
linear solve p 881848
time step continuity errors : sum local = 4.02337e-08, global = 8.9041e-21, cumulative = 1.16767e-20
ExecutionTime = 26.05 s  ClockTime = 26 s

Time = 0.008

Courant Number mean: 0.10702 max: 0.752043
DILUPBiCGStab:  Solving for Ux, Initial residual = 0.00935236, Final residual = 3.41127e-05, No Iterations 5
DILUPBiCGStab:  Solving for Uy, Initial residual = 0.0242801, Final residual = 6.39893e-05, No Iterations 5
DILUPBiCGStab:  Solving for Uz, Initial residual = 0.0622601, Final residual = 0.000328644, No Iterations 5
linear solve U 385847
DICPCG:  Solving for p, Initial residual = 0.177848, Final residual = 9.01995e-05, No Iterations 88
linear solve p 906342
time step continuity errors : sum local = 3.93038e-08, global = -1.80819e-20, cumulative = -6.40512e-21
DICPCG:  Solving for p, Initial residual = 0.149878, Final residual = 8.912e-05, No Iterations 87
linear solve p 910995
time step continuity errors : sum local = 3.60461e-08, global = -2.29344e-20, cumulative = -2.93395e-20
ExecutionTime = 28.48 s  ClockTime = 29 s

Time = 0.009

Courant Number mean: 0.111296 max: 0.754177
DILUPBiCGStab:  Solving for Ux, Initial residual = 0.00786652, Final residual = 2.30933e-05, No Iterations 5
DILUPBiCGStab:  Solving for Uy, Initial residual = 0.0194125, Final residual = 4.04688e-05, No Iterations 5
DILUPBiCGStab:  Solving for Uz, Initial residual = 0.0414801, Final residual = 0.000136208, No Iterations 5
linear solve U 387102
DICPCG:  Solving for p, Initial residual = 0.137583, Final residual = 9.47467e-05, No Iterations 85
linear solve p 868201
time step continuity errors : sum local = 3.63762e-08, global = 5.92153e-21, cumulative = -2.3418e-20
DICPCG:  Solving for p, Initial residual = 0.116108, Final residual = 9.10349e-05, No Iterations 84
linear solve p 852524
time step continuity errors : sum local = 3.43254e-08, global = -1.35551e-20, cumulative = -3.6973e-20
ExecutionTime = 30.81 s  ClockTime = 31 s

Time = 0.01

Courant Number mean: 0.115011 max: 0.75614
DILUPBiCGStab:  Solving for Ux, Initial residual = 0.00662989, Final residual = 1.77911e-05, No Iterations 5
DILUPBiCGStab:  Solving for Uy, Initial residual = 0.0166933, Final residual = 3.22122e-05, No Iterations 5
DILUPBiCGStab:  Solving for Uz, Initial residual = 0.0375011, Final residual = 0.000142122, No Iterations 5
linear solve U 386192
DICPCG:  Solving for p, Initial residual = 0.0987128, Final residual = 9.9465e-05, No Iterations 84
linear solve p 866743
time step continuity errors : sum local = 4.30759e-08, global = 6.80733e-22, cumulative = -3.62923e-20
DICPCG:  Solving for p, Initial residual = 0.0825177, Final residual = 9.21293e-05, No Iterations 83
linear solve p 870017
time step continuity errors : sum local = 3.61576e-08, global = 9.93465e-21, cumulative = -2.63577e-20
ExecutionTime = 33.15 s  ClockTime = 33 s

End

