/*---------------------------------------------------------------------------*\
  =========                 |
  \\      /  F ield         | OpenFOAM: The Open Source CFD Toolbox
   \\    /   O peration     | Website:  https://openfoam.org
    \\  /    A nd           | Version:  8
     \\/     M anipulation  |
\*---------------------------------------------------------------------------*/
Build  : 8-ef60d22ea792
Exec   : icoFoam
Date   : Jul 29 2021
Time   : 04:50:15
Host   : "uc2n414.localdomain"
PID    : 2869057
I/O    : uncollated
Case   : /pfs/data5/home/kit/scc/nq7776/code/OBR/lidDrivenCavity3D/Variation_mesh/100/Variation_matrix_solver/CG_BJ_OMP/base
nProcs : 1
sigFpe : Enabling floating point exception trapping (FOAM_SIGFPE).
fileModificationChecking : Monitoring run-time modified files using timeStampMaster (fileModificationSkew 10)
allowSystemOperations : Allowing user-supplied system call operations

// * * * * * * * * * * * * * * * * * * * * * * * * * * * * * * * * * * * * * //
Create time

Create mesh for time = 0

Reading transportProperties

Reading field p

Reading field U

Reading/calculating face flux field phi


Starting time loop

Time = 0.001

Courant Number mean: 0 max: 0
DILUPBiCGStab:  Solving for Ux, Initial residual = 1, Final residual = 0.00717233, No Iterations 5
DILUPBiCGStab:  Solving for Uy:  solution singularity
DILUPBiCGStab:  Solving for Uz:  solution singularity
linear solve U 483546
[OGL LOG] init_host_sparsity_pattern : 285 ms
[OGL LOG] matrix not stored update host matrix
[OGL LOG] update_host_mtx : 147 ms
[OGL LOG] matrix is not yet sorted, compute sorting idxs
[OGL LOG] compute_sort : 9094 ms
[OGL LOG] matrix is not yet sorted, sorting host matrix
[OGL LOG] sort_host_mtx_sparsity_pattern : 206 ms
[OGL LOG] sort_host_mtx : 130 ms
[OGL LOG] init_preconditioner : 265 ms
 CG create  precond 
[OGL LOG] solve : 55722 ms
BJompGKOCG:  Solving for p, Initial residual = 1, Final residual = 9.90887e-05, No Iterations 651
linear solve p 66061370
time step continuity errors : sum local = 5.67611e-08, global = 1.17904e-20, cumulative = 1.17904e-20
[OGL LOG] init_host_sparsity_pattern : 275 ms
[OGL LOG] matrix not stored update host matrix
[OGL LOG] update_host_mtx : 155 ms
[OGL LOG] matrix is not yet sorted, sorting host matrix
[OGL LOG] sort_host_mtx_sparsity_pattern : 207 ms
[OGL LOG] sort_host_mtx : 122 ms
[OGL LOG] init_preconditioner : 0 ms
 CG create  precond 
[OGL LOG] solve : 55149 ms
BJompGKOCG:  Solving for p, Initial residual = 0.777276, Final residual = 9.64958e-05, No Iterations 643
linear solve p 56059348
time step continuity errors : sum local = 6.97447e-08, global = 6.01078e-21, cumulative = 1.78011e-20
ExecutionTime = 126.17 s  ClockTime = 126 s

Time = 0.002

Courant Number mean: 0.0560717 max: 0.805494
DILUPBiCGStab:  Solving for Ux, Initial residual = 0.138283, Final residual = 0.00319031, No Iterations 5
DILUPBiCGStab:  Solving for Uy, Initial residual = 0.430534, Final residual = 0.00909548, No Iterations 5
DILUPBiCGStab:  Solving for Uz, Initial residual = 0.990256, Final residual = 0.0225855, No Iterations 5
linear solve U 954762
[OGL LOG] init_host_sparsity_pattern : 265 ms
[OGL LOG] matrix not stored update host matrix
[OGL LOG] update_host_mtx : 148 ms
[OGL LOG] matrix is not yet sorted, sorting host matrix
[OGL LOG] sort_host_mtx_sparsity_pattern : 207 ms
[OGL LOG] sort_host_mtx : 123 ms
[OGL LOG] init_preconditioner : 0 ms
 CG create  precond 
[OGL LOG] solve : 54809 ms
BJompGKOCG:  Solving for p, Initial residual = 0.799817, Final residual = 9.45978e-05, No Iterations 639
linear solve p 55703647
time step continuity errors : sum local = 9.68051e-08, global = 1.50923e-20, cumulative = 3.28935e-20
[OGL LOG] init_host_sparsity_pattern : 264 ms
[OGL LOG] matrix not stored update host matrix
[OGL LOG] update_host_mtx : 148 ms
[OGL LOG] matrix is not yet sorted, sorting host matrix
[OGL LOG] sort_host_mtx_sparsity_pattern : 206 ms
[OGL LOG] sort_host_mtx : 133 ms
[OGL LOG] init_preconditioner : 0 ms
 CG create  precond 
[OGL LOG] solve : 54434 ms
BJompGKOCG:  Solving for p, Initial residual = 0.740773, Final residual = 9.53982e-05, No Iterations 636
linear solve p 55337798
time step continuity errors : sum local = 9.96428e-08, global = -7.28913e-21, cumulative = 2.56043e-20
ExecutionTime = 238.41 s  ClockTime = 239 s

Time = 0.003

Courant Number mean: 0.0852774 max: 0.943652
DILUPBiCGStab:  Solving for Ux, Initial residual = 0.0649268, Final residual = 0.00112819, No Iterations 5
DILUPBiCGStab:  Solving for Uy, Initial residual = 0.225997, Final residual = 0.00296743, No Iterations 5
DILUPBiCGStab:  Solving for Uz, Initial residual = 0.792274, Final residual = 0.016224, No Iterations 5
linear solve U 957549
[OGL LOG] init_host_sparsity_pattern : 265 ms
[OGL LOG] matrix not stored update host matrix
[OGL LOG] update_host_mtx : 148 ms
[OGL LOG] matrix is not yet sorted, sorting host matrix
[OGL LOG] sort_host_mtx_sparsity_pattern : 207 ms
[OGL LOG] sort_host_mtx : 122 ms
[OGL LOG] init_preconditioner : 0 ms
 CG create  precond 
[OGL LOG] solve : 32792 ms
BJompGKOCG:  Solving for p, Initial residual = 0.832986, Final residual = 9.55344e-05, No Iterations 382
linear solve p 33684475
time step continuity errors : sum local = 9.28903e-08, global = 5.1593e-21, cumulative = 3.07636e-20
[OGL LOG] init_host_sparsity_pattern : 265 ms
[OGL LOG] matrix not stored update host matrix
[OGL LOG] update_host_mtx : 152 ms
[OGL LOG] matrix is not yet sorted, sorting host matrix
[OGL LOG] sort_host_mtx_sparsity_pattern : 207 ms
[OGL LOG] sort_host_mtx : 132 ms
[OGL LOG] init_preconditioner : 0 ms
 CG create  precond 
[OGL LOG] solve : 32547 ms
BJompGKOCG:  Solving for p, Initial residual = 0.802272, Final residual = 9.84979e-05, No Iterations 380
linear solve p 33453089
time step continuity errors : sum local = 9.28999e-08, global = 8.24732e-21, cumulative = 3.90109e-20
ExecutionTime = 306.88 s  ClockTime = 308 s

Time = 0.004

Courant Number mean: 0.0982044 max: 0.92638
DILUPBiCGStab:  Solving for Ux, Initial residual = 0.0388077, Final residual = 0.000835233, No Iterations 5
DILUPBiCGStab:  Solving for Uy, Initial residual = 0.168221, Final residual = 0.00318247, No Iterations 5
DILUPBiCGStab:  Solving for Uz, Initial residual = 0.629565, Final residual = 0.0109805, No Iterations 5
linear solve U 953966
[OGL LOG] init_host_sparsity_pattern : 268 ms
[OGL LOG] matrix not stored update host matrix
[OGL LOG] update_host_mtx : 147 ms
[OGL LOG] matrix is not yet sorted, sorting host matrix
[OGL LOG] sort_host_mtx_sparsity_pattern : 206 ms
[OGL LOG] sort_host_mtx : 131 ms
[OGL LOG] init_preconditioner : 0 ms
 CG create  precond 
[OGL LOG] solve : 32144 ms
BJompGKOCG:  Solving for p, Initial residual = 0.749501, Final residual = 9.96713e-05, No Iterations 375
linear solve p 33047747
time step continuity errors : sum local = 9.29397e-08, global = -6.56871e-21, cumulative = 3.24422e-20
[OGL LOG] init_host_sparsity_pattern : 265 ms
[OGL LOG] matrix not stored update host matrix
[OGL LOG] update_host_mtx : 148 ms
[OGL LOG] matrix is not yet sorted, sorting host matrix
[OGL LOG] sort_host_mtx_sparsity_pattern : 207 ms
[OGL LOG] sort_host_mtx : 122 ms
[OGL LOG] init_preconditioner : 0 ms
 CG create  precond 
[OGL LOG] solve : 29738 ms
BJompGKOCG:  Solving for p, Initial residual = 0.685193, Final residual = 9.856e-05, No Iterations 347
linear solve p 30629798
time step continuity errors : sum local = 9.05261e-08, global = -2.27177e-20, cumulative = 9.7245e-21
ExecutionTime = 371.88 s  ClockTime = 373 s

Time = 0.005

Courant Number mean: 0.110594 max: 0.944583
DILUPBiCGStab:  Solving for Ux, Initial residual = 0.0304954, Final residual = 0.000612163, No Iterations 5
DILUPBiCGStab:  Solving for Uy, Initial residual = 0.0983663, Final residual = 0.00202364, No Iterations 5
DILUPBiCGStab:  Solving for Uz, Initial residual = 0.588931, Final residual = 0.00952867, No Iterations 5
linear solve U 950230
[OGL LOG] init_host_sparsity_pattern : 274 ms
[OGL LOG] matrix not stored update host matrix
[OGL LOG] update_host_mtx : 148 ms
[OGL LOG] matrix is not yet sorted, sorting host matrix
[OGL LOG] sort_host_mtx_sparsity_pattern : 207 ms
[OGL LOG] sort_host_mtx : 122 ms
[OGL LOG] init_preconditioner : 0 ms
 CG create  precond 
[OGL LOG] solve : 29243 ms
BJompGKOCG:  Solving for p, Initial residual = 0.757818, Final residual = 9.68453e-05, No Iterations 341
linear solve p 30144023
time step continuity errors : sum local = 7.52375e-08, global = 7.3344e-21, cumulative = 1.70589e-20
[OGL LOG] init_host_sparsity_pattern : 265 ms
[OGL LOG] matrix not stored update host matrix
[OGL LOG] update_host_mtx : 148 ms
[OGL LOG] matrix is not yet sorted, sorting host matrix
[OGL LOG] sort_host_mtx_sparsity_pattern : 206 ms
[OGL LOG] sort_host_mtx : 122 ms
[OGL LOG] init_preconditioner : 0 ms
 CG create  precond 
[OGL LOG] solve : 27005 ms
BJompGKOCG:  Solving for p, Initial residual = 0.709869, Final residual = 9.99603e-05, No Iterations 315
linear solve p 27906063
time step continuity errors : sum local = 7.44508e-08, global = 1.09964e-20, cumulative = 2.80553e-20
ExecutionTime = 431.28 s  ClockTime = 432 s

Time = 0.006

Courant Number mean: 0.118979 max: 0.944967
DILUPBiCGStab:  Solving for Ux, Initial residual = 0.0203424, Final residual = 0.000433486, No Iterations 5
DILUPBiCGStab:  Solving for Uy, Initial residual = 0.0819502, Final residual = 0.0016364, No Iterations 5
DILUPBiCGStab:  Solving for Uz, Initial residual = 0.435977, Final residual = 0.0070362, No Iterations 5
linear solve U 946519
[OGL LOG] init_host_sparsity_pattern : 265 ms
[OGL LOG] matrix not stored update host matrix
[OGL LOG] update_host_mtx : 148 ms
[OGL LOG] matrix is not yet sorted, sorting host matrix
[OGL LOG] sort_host_mtx_sparsity_pattern : 210 ms
[OGL LOG] sort_host_mtx : 123 ms
[OGL LOG] init_preconditioner : 0 ms
 CG create  precond 
[OGL LOG] solve : 28895 ms
BJompGKOCG:  Solving for p, Initial residual = 0.66165, Final residual = 9.93872e-05, No Iterations 337
linear solve p 29791589
time step continuity errors : sum local = 7.06601e-08, global = -4.72876e-21, cumulative = 2.33266e-20
[OGL LOG] init_host_sparsity_pattern : 266 ms
[OGL LOG] matrix not stored update host matrix
[OGL LOG] update_host_mtx : 148 ms
[OGL LOG] matrix is not yet sorted, sorting host matrix
[OGL LOG] sort_host_mtx_sparsity_pattern : 207 ms
[OGL LOG] sort_host_mtx : 122 ms
[OGL LOG] init_preconditioner : 0 ms
 CG create  precond 
[OGL LOG] solve : 28197 ms
BJompGKOCG:  Solving for p, Initial residual = 0.60078, Final residual = 9.9057e-05, No Iterations 329
linear solve p 29090686
time step continuity errors : sum local = 7.0151e-08, global = 7.10201e-21, cumulative = 3.04286e-20
ExecutionTime = 491.5 s  ClockTime = 493 s

Time = 0.007

Courant Number mean: 0.12661 max: 0.947973
DILUPBiCGStab:  Solving for Ux, Initial residual = 0.0176511, Final residual = 0.00035534, No Iterations 5
DILUPBiCGStab:  Solving for Uy, Initial residual = 0.0557101, Final residual = 0.00126626, No Iterations 5
DILUPBiCGStab:  Solving for Uz, Initial residual = 0.380661, Final residual = 0.00590957, No Iterations 5
linear solve U 953752
[OGL LOG] init_host_sparsity_pattern : 273 ms
[OGL LOG] matrix not stored update host matrix
[OGL LOG] update_host_mtx : 148 ms
[OGL LOG] matrix is not yet sorted, sorting host matrix
[OGL LOG] sort_host_mtx_sparsity_pattern : 207 ms
[OGL LOG] sort_host_mtx : 122 ms
[OGL LOG] init_preconditioner : 0 ms
 CG create  precond 
[OGL LOG] solve : 26583 ms
BJompGKOCG:  Solving for p, Initial residual = 0.659707, Final residual = 9.73398e-05, No Iterations 310
linear solve p 27483120
time step continuity errors : sum local = 6.06945e-08, global = -3.5686e-21, cumulative = 2.686e-20
[OGL LOG] init_host_sparsity_pattern : 265 ms
[OGL LOG] matrix not stored update host matrix
[OGL LOG] update_host_mtx : 147 ms
[OGL LOG] matrix is not yet sorted, sorting host matrix
[OGL LOG] sort_host_mtx_sparsity_pattern : 207 ms
[OGL LOG] sort_host_mtx : 122 ms
[OGL LOG] init_preconditioner : 0 ms
 CG create  precond 
[OGL LOG] solve : 26304 ms
BJompGKOCG:  Solving for p, Initial residual = 0.602127, Final residual = 9.77865e-05, No Iterations 307
linear solve p 27197180
time step continuity errors : sum local = 5.82893e-08, global = 6.7861e-21, cumulative = 3.36461e-20
ExecutionTime = 547.53 s  ClockTime = 549 s

Time = 0.008

Courant Number mean: 0.132628 max: 0.951936
DILUPBiCGStab:  Solving for Ux, Initial residual = 0.0129729, Final residual = 0.000261847, No Iterations 5
DILUPBiCGStab:  Solving for Uy, Initial residual = 0.0477339, Final residual = 0.00100354, No Iterations 5
DILUPBiCGStab:  Solving for Uz, Initial residual = 0.288025, Final residual = 0.00452592, No Iterations 5
linear solve U 958202
[OGL LOG] init_host_sparsity_pattern : 265 ms
[OGL LOG] matrix not stored update host matrix
[OGL LOG] update_host_mtx : 147 ms
[OGL LOG] matrix is not yet sorted, sorting host matrix
[OGL LOG] sort_host_mtx_sparsity_pattern : 206 ms
[OGL LOG] sort_host_mtx : 122 ms
[OGL LOG] init_preconditioner : 0 ms
 CG create  precond 
[OGL LOG] solve : 27313 ms
BJompGKOCG:  Solving for p, Initial residual = 0.567238, Final residual = 9.70112e-05, No Iterations 316
linear solve p 28219528
time step continuity errors : sum local = 5.56203e-08, global = -5.84154e-21, cumulative = 2.78046e-20
[OGL LOG] init_host_sparsity_pattern : 271 ms
[OGL LOG] matrix not stored update host matrix
[OGL LOG] update_host_mtx : 151 ms
[OGL LOG] matrix is not yet sorted, sorting host matrix
[OGL LOG] sort_host_mtx_sparsity_pattern : 231 ms
[OGL LOG] sort_host_mtx : 125 ms
[OGL LOG] init_preconditioner : 0 ms
 CG create  precond 
[OGL LOG] solve : 27117 ms
BJompGKOCG:  Solving for p, Initial residual = 0.509472, Final residual = 9.91637e-05, No Iterations 313
linear solve p 28081115
time step continuity errors : sum local = 5.58385e-08, global = 6.60943e-21, cumulative = 3.4414e-20
ExecutionTime = 605.58 s  ClockTime = 607 s

Time = 0.009

Courant Number mean: 0.138049 max: 0.953446
DILUPBiCGStab:  Solving for Ux, Initial residual = 0.0114678, Final residual = 0.000214304, No Iterations 5
DILUPBiCGStab:  Solving for Uy, Initial residual = 0.0356996, Final residual = 0.00079369, No Iterations 5
DILUPBiCGStab:  Solving for Uz, Initial residual = 0.246508, Final residual = 0.00394108, No Iterations 5
linear solve U 990588
[OGL LOG] init_host_sparsity_pattern : 274 ms
[OGL LOG] matrix not stored update host matrix
[OGL LOG] update_host_mtx : 150 ms
[OGL LOG] matrix is not yet sorted, sorting host matrix
[OGL LOG] sort_host_mtx_sparsity_pattern : 209 ms
[OGL LOG] sort_host_mtx : 125 ms
[OGL LOG] init_preconditioner : 0 ms
 CG create  precond 
[OGL LOG] solve : 53835 ms
BJompGKOCG:  Solving for p, Initial residual = 0.556086, Final residual = 9.41178e-05, No Iterations 626
linear solve p 54790330
time step continuity errors : sum local = 4.57788e-08, global = 7.67804e-21, cumulative = 4.2092e-20
[OGL LOG] init_host_sparsity_pattern : 271 ms
[OGL LOG] matrix not stored update host matrix
[OGL LOG] update_host_mtx : 151 ms
[OGL LOG] matrix is not yet sorted, sorting host matrix
[OGL LOG] sort_host_mtx_sparsity_pattern : 212 ms
[OGL LOG] sort_host_mtx : 123 ms
[OGL LOG] init_preconditioner : 0 ms
 CG create  precond 
[OGL LOG] solve : 29092 ms
BJompGKOCG:  Solving for p, Initial residual = 0.496613, Final residual = 9.83614e-05, No Iterations 338
linear solve p 30004976
time step continuity errors : sum local = 5.59649e-08, global = 5.92052e-21, cumulative = 4.80125e-20
ExecutionTime = 691.77 s  ClockTime = 694 s

Time = 0.01

Courant Number mean: 0.142642 max: 0.955919
DILUPBiCGStab:  Solving for Ux, Initial residual = 0.00898588, Final residual = 0.000162031, No Iterations 5
DILUPBiCGStab:  Solving for Uy, Initial residual = 0.0309879, Final residual = 0.000638051, No Iterations 5
DILUPBiCGStab:  Solving for Uz, Initial residual = 0.192862, Final residual = 0.00319165, No Iterations 5
linear solve U 966311
[OGL LOG] init_host_sparsity_pattern : 272 ms
[OGL LOG] matrix not stored update host matrix
[OGL LOG] update_host_mtx : 149 ms
[OGL LOG] matrix is not yet sorted, sorting host matrix
[OGL LOG] sort_host_mtx_sparsity_pattern : 209 ms
[OGL LOG] sort_host_mtx : 124 ms
[OGL LOG] init_preconditioner : 0 ms
 CG create  precond 
[OGL LOG] solve : 53722 ms
BJompGKOCG:  Solving for p, Initial residual = 0.477543, Final residual = 9.92651e-05, No Iterations 623
linear solve p 54643463
time step continuity errors : sum local = 4.72719e-08, global = 5.10478e-21, cumulative = 5.31173e-20
[OGL LOG] init_host_sparsity_pattern : 265 ms
[OGL LOG] matrix not stored update host matrix
[OGL LOG] update_host_mtx : 150 ms
[OGL LOG] matrix is not yet sorted, sorting host matrix
[OGL LOG] sort_host_mtx_sparsity_pattern : 210 ms
[OGL LOG] sort_host_mtx : 125 ms
[OGL LOG] init_preconditioner : 0 ms
 CG create  precond 
[OGL LOG] solve : 53612 ms
BJompGKOCG:  Solving for p, Initial residual = 0.42468, Final residual = 9.61647e-05, No Iterations 622
linear solve p 54519587
time step continuity errors : sum local = 4.56448e-08, global = -1.15613e-20, cumulative = 4.1556e-20
ExecutionTime = 802.23 s  ClockTime = 804 s

End

