/*---------------------------------------------------------------------------*\
  =========                 |
  \\      /  F ield         | OpenFOAM: The Open Source CFD Toolbox
   \\    /   O peration     | Website:  https://openfoam.org
    \\  /    A nd           | Version:  8
     \\/     M anipulation  |
\*---------------------------------------------------------------------------*/
Build  : 8-40a5a48f630f
Exec   : icoFoam
Date   : Jul 28 2021
Time   : 12:15:54
Host   : "uc2n446.localdomain"
PID    : 410502
I/O    : uncollated
Case   : /pfs/data5/home/kit/scc/nq7776/code/OBR/lidDrivenCavity3D/Variation_mesh/25/Variation_matrix_solver/BiCGStab_BJ_OMP/base
nProcs : 1
sigFpe : Enabling floating point exception trapping (FOAM_SIGFPE).
fileModificationChecking : Monitoring run-time modified files using timeStampMaster (fileModificationSkew 10)
allowSystemOperations : Allowing user-supplied system call operations

// * * * * * * * * * * * * * * * * * * * * * * * * * * * * * * * * * * * * * //
Create time

Create mesh for time = 0

Reading transportProperties

Reading field p

Reading field U

Reading/calculating face flux field phi


Starting time loop

Time = 0.001

Courant Number mean: 0 max: 0
nonePBiCGStab:  Solving for Ux, Initial residual = 1, Final residual = 0.00310183, No Iterations 5
nonePBiCGStab:  Solving for Uy, Initial residual = 0, Final residual = 0, No Iterations 0
nonePBiCGStab:  Solving for Uz, Initial residual = 0, Final residual = 0, No Iterations 0
linear solve U 2
[OGL LOG] init_host_sparsity_pattern : 4 ms
[OGL LOG] matrix not stored update host matrix
[OGL LOG] update_host_mtx : 2 ms
[OGL LOG] matrix is not yet sorted, compute sorting idxs
[OGL LOG] compute_sort : 105 ms
[OGL LOG] matrix is not yet sorted, sorting host matrix
[OGL LOG] sort_host_mtx_sparsity_pattern : 3 ms
[OGL LOG] sort_host_mtx : 1 ms
[OGL LOG] init_preconditioner : 1 ms
[OGL LOG] solve : 75 ms
BJompGKOBiCGStab:  Solving for p, Initial residual = 1, Final residual = 3.01352e-05, No Iterations 136
linear solve p 207
time step continuity errors : sum local = 1.00726e-06, global = -1.95479e-20, cumulative = -1.95479e-20
[OGL LOG] init_host_sparsity_pattern : 4 ms
[OGL LOG] matrix not stored update host matrix
[OGL LOG] update_host_mtx : 2 ms
[OGL LOG] matrix is not yet sorted, sorting host matrix
[OGL LOG] sort_host_mtx_sparsity_pattern : 3 ms
[OGL LOG] sort_host_mtx : 1 ms
[OGL LOG] init_preconditioner : 0 ms
[OGL LOG] solve : 66 ms
BJompGKOBiCGStab:  Solving for p, Initial residual = 0.481147, Final residual = 9.38534e-05, No Iterations 121
linear solve p 80
time step continuity errors : sum local = 5.17786e-07, global = 1.46576e-21, cumulative = -1.80822e-20
ExecutionTime = 3.36 s  ClockTime = 0 s

Time = 0.002

Courant Number mean: 0.0119706 max: 0.106554
nonePBiCGStab:  Solving for Ux, Initial residual = 0.210813, Final residual = 0.000695607, No Iterations 5
nonePBiCGStab:  Solving for Uy, Initial residual = 0.284538, Final residual = 0.000655921, No Iterations 5
nonePBiCGStab:  Solving for Uz, Initial residual = 0.878855, Final residual = 0.00312966, No Iterations 5
linear solve U 5
[OGL LOG] init_host_sparsity_pattern : 4 ms
[OGL LOG] matrix not stored update host matrix
[OGL LOG] update_host_mtx : 2 ms
[OGL LOG] matrix is not yet sorted, sorting host matrix
[OGL LOG] sort_host_mtx_sparsity_pattern : 3 ms
[OGL LOG] sort_host_mtx : 1 ms
[OGL LOG] init_preconditioner : 0 ms
[OGL LOG] solve : 58 ms
BJompGKOBiCGStab:  Solving for p, Initial residual = 0.286435, Final residual = 9.77833e-05, No Iterations 108
linear solve p 71
time step continuity errors : sum local = 8.46933e-07, global = 1.93043e-21, cumulative = -1.61517e-20
[OGL LOG] init_host_sparsity_pattern : 4 ms
[OGL LOG] matrix not stored update host matrix
[OGL LOG] update_host_mtx : 2 ms
[OGL LOG] matrix is not yet sorted, sorting host matrix
[OGL LOG] sort_host_mtx_sparsity_pattern : 3 ms
[OGL LOG] sort_host_mtx : 1 ms
[OGL LOG] init_preconditioner : 0 ms
[OGL LOG] solve : 58 ms
BJompGKOBiCGStab:  Solving for p, Initial residual = 0.189971, Final residual = 9.84062e-05, No Iterations 107
linear solve p 72
time step continuity errors : sum local = 2.15369e-07, global = -1.86577e-20, cumulative = -3.48094e-20
ExecutionTime = 5.96 s  ClockTime = 1 s

Time = 0.003

Courant Number mean: 0.0188463 max: 0.153563
nonePBiCGStab:  Solving for Ux, Initial residual = 0.090002, Final residual = 0.000292242, No Iterations 5
nonePBiCGStab:  Solving for Uy, Initial residual = 0.12488, Final residual = 0.000207651, No Iterations 5
nonePBiCGStab:  Solving for Uz, Initial residual = 0.27347, Final residual = 0.000981826, No Iterations 5
linear solve U 5
[OGL LOG] init_host_sparsity_pattern : 4 ms
[OGL LOG] matrix not stored update host matrix
[OGL LOG] update_host_mtx : 2 ms
[OGL LOG] matrix is not yet sorted, sorting host matrix
[OGL LOG] sort_host_mtx_sparsity_pattern : 3 ms
[OGL LOG] sort_host_mtx : 1 ms
[OGL LOG] init_preconditioner : 0 ms
[OGL LOG] solve : 54 ms
BJompGKOBiCGStab:  Solving for p, Initial residual = 0.103369, Final residual = 7.16561e-05, No Iterations 103
linear solve p 67
time step continuity errors : sum local = 1.85767e-05, global = -8.67113e-21, cumulative = -4.34805e-20
[OGL LOG] init_host_sparsity_pattern : 4 ms
[OGL LOG] matrix not stored update host matrix
[OGL LOG] update_host_mtx : 2 ms
[OGL LOG] matrix is not yet sorted, sorting host matrix
[OGL LOG] sort_host_mtx_sparsity_pattern : 3 ms
[OGL LOG] sort_host_mtx : 1 ms
[OGL LOG] init_preconditioner : 0 ms
[OGL LOG] solve : 62 ms
BJompGKOBiCGStab:  Solving for p, Initial residual = 0.0904501, Final residual = 7.31002e-05, No Iterations 117
linear solve p 75
time step continuity errors : sum local = 8.36279e-06, global = -1.97822e-20, cumulative = -6.32628e-20
ExecutionTime = 8.5 s  ClockTime = 1 s

Time = 0.004

Courant Number mean: 0.0233165 max: 0.175119
nonePBiCGStab:  Solving for Ux, Initial residual = 0.0519827, Final residual = 0.000139091, No Iterations 5
nonePBiCGStab:  Solving for Uy, Initial residual = 0.0749071, Final residual = 8.0464e-05, No Iterations 5
nonePBiCGStab:  Solving for Uz, Initial residual = 0.164847, Final residual = 0.000725486, No Iterations 5
linear solve U 5
[OGL LOG] init_host_sparsity_pattern : 4 ms
[OGL LOG] matrix not stored update host matrix
[OGL LOG] update_host_mtx : 2 ms
[OGL LOG] matrix is not yet sorted, sorting host matrix
[OGL LOG] sort_host_mtx_sparsity_pattern : 3 ms
[OGL LOG] sort_host_mtx : 1 ms
[OGL LOG] init_preconditioner : 0 ms
[OGL LOG] solve : 57 ms
BJompGKOBiCGStab:  Solving for p, Initial residual = 0.0719428, Final residual = 9.23789e-05, No Iterations 107
linear solve p 69
time step continuity errors : sum local = 1.50759e-06, global = 1.13642e-20, cumulative = -5.18986e-20
[OGL LOG] init_host_sparsity_pattern : 4 ms
[OGL LOG] matrix not stored update host matrix
[OGL LOG] update_host_mtx : 2 ms
[OGL LOG] matrix is not yet sorted, sorting host matrix
[OGL LOG] sort_host_mtx_sparsity_pattern : 2 ms
[OGL LOG] sort_host_mtx : 1 ms
[OGL LOG] init_preconditioner : 0 ms
[OGL LOG] solve : 57 ms
BJompGKOBiCGStab:  Solving for p, Initial residual = 0.0432294, Final residual = 9.47101e-05, No Iterations 109
linear solve p 70
time step continuity errors : sum local = 6.36409e-06, global = -7.85573e-21, cumulative = -5.97543e-20
ExecutionTime = 11.03 s  ClockTime = 1 s

Time = 0.005

Courant Number mean: 0.0264949 max: 0.186504
nonePBiCGStab:  Solving for Ux, Initial residual = 0.0351178, Final residual = 6.10591e-05, No Iterations 5
nonePBiCGStab:  Solving for Uy, Initial residual = 0.051019, Final residual = 4.22665e-05, No Iterations 5
nonePBiCGStab:  Solving for Uz, Initial residual = 0.104448, Final residual = 0.000352336, No Iterations 5
linear solve U 5
[OGL LOG] init_host_sparsity_pattern : 4 ms
[OGL LOG] matrix not stored update host matrix
[OGL LOG] update_host_mtx : 2 ms
[OGL LOG] matrix is not yet sorted, sorting host matrix
[OGL LOG] sort_host_mtx_sparsity_pattern : 3 ms
[OGL LOG] sort_host_mtx : 1 ms
[OGL LOG] init_preconditioner : 0 ms
[OGL LOG] solve : 56 ms
BJompGKOBiCGStab:  Solving for p, Initial residual = 0.0434464, Final residual = 8.91943e-05, No Iterations 106
linear solve p 69
time step continuity errors : sum local = 8.89753e-06, global = 6.81721e-21, cumulative = -5.29371e-20
[OGL LOG] init_host_sparsity_pattern : 4 ms
[OGL LOG] matrix not stored update host matrix
[OGL LOG] update_host_mtx : 2 ms
[OGL LOG] matrix is not yet sorted, sorting host matrix
[OGL LOG] sort_host_mtx_sparsity_pattern : 2 ms
[OGL LOG] sort_host_mtx : 1 ms
[OGL LOG] init_preconditioner : 0 ms
[OGL LOG] solve : 56 ms
BJompGKOBiCGStab:  Solving for p, Initial residual = 0.0344756, Final residual = 9.52127e-05, No Iterations 106
linear solve p 68
time step continuity errors : sum local = 1.31754e-07, global = 1.94067e-20, cumulative = -3.35304e-20
ExecutionTime = 13.5 s  ClockTime = 1 s

Time = 0.006

Courant Number mean: 0.0288958 max: 0.193336
nonePBiCGStab:  Solving for Ux, Initial residual = 0.0259518, Final residual = 2.88006e-05, No Iterations 5
nonePBiCGStab:  Solving for Uy, Initial residual = 0.0381201, Final residual = 2.74364e-05, No Iterations 5
nonePBiCGStab:  Solving for Uz, Initial residual = 0.0786879, Final residual = 0.000331017, No Iterations 5
linear solve U 5
[OGL LOG] init_host_sparsity_pattern : 4 ms
[OGL LOG] matrix not stored update host matrix
[OGL LOG] update_host_mtx : 2 ms
[OGL LOG] matrix is not yet sorted, sorting host matrix
[OGL LOG] sort_host_mtx_sparsity_pattern : 2 ms
[OGL LOG] sort_host_mtx : 1 ms
[OGL LOG] init_preconditioner : 0 ms
[OGL LOG] solve : 24 ms
BJompGKOBiCGStab:  Solving for p, Initial residual = 0.0283198, Final residual = 8.92879e-05, No Iterations 45
linear solve p 36
time step continuity errors : sum local = 1.2269e-07, global = -3.21607e-20, cumulative = -6.56911e-20
[OGL LOG] init_host_sparsity_pattern : 4 ms
[OGL LOG] matrix not stored update host matrix
[OGL LOG] update_host_mtx : 2 ms
[OGL LOG] matrix is not yet sorted, sorting host matrix
[OGL LOG] sort_host_mtx_sparsity_pattern : 2 ms
[OGL LOG] sort_host_mtx : 1 ms
[OGL LOG] init_preconditioner : 0 ms
[OGL LOG] solve : 21 ms
BJompGKOBiCGStab:  Solving for p, Initial residual = 0.0177421, Final residual = 9.61278e-05, No Iterations 39
linear solve p 33
time step continuity errors : sum local = 1.43746e-07, global = -1.75952e-20, cumulative = -8.32862e-20
ExecutionTime = 14.63 s  ClockTime = 1 s

Time = 0.007

Courant Number mean: 0.030831 max: 0.19789
nonePBiCGStab:  Solving for Ux, Initial residual = 0.0203791, Final residual = 1.36765e-05, No Iterations 5
nonePBiCGStab:  Solving for Uy, Initial residual = 0.03002, Final residual = 1.87776e-05, No Iterations 5
nonePBiCGStab:  Solving for Uz, Initial residual = 0.0584059, Final residual = 7.69401e-05, No Iterations 5
linear solve U 6
[OGL LOG] init_host_sparsity_pattern : 4 ms
[OGL LOG] matrix not stored update host matrix
[OGL LOG] update_host_mtx : 2 ms
[OGL LOG] matrix is not yet sorted, sorting host matrix
[OGL LOG] sort_host_mtx_sparsity_pattern : 2 ms
[OGL LOG] sort_host_mtx : 1 ms
[OGL LOG] init_preconditioner : 0 ms
[OGL LOG] solve : 23 ms
BJompGKOBiCGStab:  Solving for p, Initial residual = 0.0189661, Final residual = 9.32122e-05, No Iterations 44
linear solve p 35
time step continuity errors : sum local = 1.81733e-07, global = 5.43726e-21, cumulative = -7.7849e-20
[OGL LOG] init_host_sparsity_pattern : 4 ms
[OGL LOG] matrix not stored update host matrix
[OGL LOG] update_host_mtx : 2 ms
[OGL LOG] matrix is not yet sorted, sorting host matrix
[OGL LOG] sort_host_mtx_sparsity_pattern : 2 ms
[OGL LOG] sort_host_mtx : 1 ms
[OGL LOG] init_preconditioner : 0 ms
[OGL LOG] solve : 18 ms
BJompGKOBiCGStab:  Solving for p, Initial residual = 0.0128019, Final residual = 9.85882e-05, No Iterations 35
linear solve p 31
time step continuity errors : sum local = 2.06536e-07, global = 1.46266e-20, cumulative = -6.32223e-20
ExecutionTime = 15.73 s  ClockTime = 1 s

Time = 0.008

Courant Number mean: 0.0324762 max: 0.201171
nonePBiCGStab:  Solving for Ux, Initial residual = 0.0165153, Final residual = 5.53314e-06, No Iterations 5
nonePBiCGStab:  Solving for Uy, Initial residual = 0.0246376, Final residual = 7.25605e-06, No Iterations 5
nonePBiCGStab:  Solving for Uz, Initial residual = 0.0481161, Final residual = 4.93281e-05, No Iterations 5
linear solve U 5
[OGL LOG] init_host_sparsity_pattern : 4 ms
[OGL LOG] matrix not stored update host matrix
[OGL LOG] update_host_mtx : 2 ms
[OGL LOG] matrix is not yet sorted, sorting host matrix
[OGL LOG] sort_host_mtx_sparsity_pattern : 3 ms
[OGL LOG] sort_host_mtx : 1 ms
[OGL LOG] init_preconditioner : 0 ms
[OGL LOG] solve : 20 ms
BJompGKOBiCGStab:  Solving for p, Initial residual = 0.0150356, Final residual = 9.14955e-05, No Iterations 38
linear solve p 33
time step continuity errors : sum local = 1.5652e-07, global = 1.13944e-22, cumulative = -6.31084e-20
[OGL LOG] init_host_sparsity_pattern : 4 ms
[OGL LOG] matrix not stored update host matrix
[OGL LOG] update_host_mtx : 2 ms
[OGL LOG] matrix is not yet sorted, sorting host matrix
[OGL LOG] sort_host_mtx_sparsity_pattern : 3 ms
[OGL LOG] sort_host_mtx : 1 ms
[OGL LOG] init_preconditioner : 0 ms
[OGL LOG] solve : 21 ms
BJompGKOBiCGStab:  Solving for p, Initial residual = 0.0102495, Final residual = 9.00556e-05, No Iterations 39
linear solve p 33
time step continuity errors : sum local = 1.45831e-07, global = -3.28889e-20, cumulative = -9.59973e-20
ExecutionTime = 16.79 s  ClockTime = 1 s

Time = 0.009

Courant Number mean: 0.0338807 max: 0.203667
nonePBiCGStab:  Solving for Ux, Initial residual = 0.0137971, Final residual = 3.15261e-06, No Iterations 5
nonePBiCGStab:  Solving for Uy, Initial residual = 0.0206872, Final residual = 4.41454e-06, No Iterations 5
nonePBiCGStab:  Solving for Uz, Initial residual = 0.0409885, Final residual = 2.2655e-05, No Iterations 5
linear solve U 5
[OGL LOG] init_host_sparsity_pattern : 4 ms
[OGL LOG] matrix not stored update host matrix
[OGL LOG] update_host_mtx : 2 ms
[OGL LOG] matrix is not yet sorted, sorting host matrix
[OGL LOG] sort_host_mtx_sparsity_pattern : 2 ms
[OGL LOG] sort_host_mtx : 1 ms
[OGL LOG] init_preconditioner : 0 ms
[OGL LOG] solve : 20 ms
BJompGKOBiCGStab:  Solving for p, Initial residual = 0.012455, Final residual = 9.50387e-05, No Iterations 38
linear solve p 32
time step continuity errors : sum local = 1.63982e-07, global = 4.35149e-20, cumulative = -5.24824e-20
[OGL LOG] init_host_sparsity_pattern : 4 ms
[OGL LOG] matrix not stored update host matrix
[OGL LOG] update_host_mtx : 2 ms
[OGL LOG] matrix is not yet sorted, sorting host matrix
[OGL LOG] sort_host_mtx_sparsity_pattern : 2 ms
[OGL LOG] sort_host_mtx : 1 ms
[OGL LOG] init_preconditioner : 0 ms
[OGL LOG] solve : 21 ms
BJompGKOBiCGStab:  Solving for p, Initial residual = 0.00855712, Final residual = 9.9881e-05, No Iterations 39
linear solve p 33
time step continuity errors : sum local = 1.60741e-07, global = 2.43871e-20, cumulative = -2.80953e-20
ExecutionTime = 17.85 s  ClockTime = 1 s

Time = 0.01

Courant Number mean: 0.035092 max: 0.205642
nonePBiCGStab:  Solving for Ux, Initial residual = 0.011725, Final residual = 2.16985e-06, No Iterations 5
nonePBiCGStab:  Solving for Uy, Initial residual = 0.0177187, Final residual = 3.10877e-06, No Iterations 5
nonePBiCGStab:  Solving for Uz, Initial residual = 0.0354299, Final residual = 1.59977e-05, No Iterations 5
linear solve U 6
[OGL LOG] init_host_sparsity_pattern : 4 ms
[OGL LOG] matrix not stored update host matrix
[OGL LOG] update_host_mtx : 2 ms
[OGL LOG] matrix is not yet sorted, sorting host matrix
[OGL LOG] sort_host_mtx_sparsity_pattern : 3 ms
[OGL LOG] sort_host_mtx : 1 ms
[OGL LOG] init_preconditioner : 0 ms
[OGL LOG] solve : 19 ms
BJompGKOBiCGStab:  Solving for p, Initial residual = 0.0105288, Final residual = 8.21397e-05, No Iterations 37
linear solve p 32
time step continuity errors : sum local = 1.40502e-07, global = -1.76831e-21, cumulative = -2.98636e-20
[OGL LOG] init_host_sparsity_pattern : 4 ms
[OGL LOG] matrix not stored update host matrix
[OGL LOG] update_host_mtx : 2 ms
[OGL LOG] matrix is not yet sorted, sorting host matrix
[OGL LOG] sort_host_mtx_sparsity_pattern : 2 ms
[OGL LOG] sort_host_mtx : 1 ms
[OGL LOG] init_preconditioner : 0 ms
[OGL LOG] solve : 19 ms
BJompGKOBiCGStab:  Solving for p, Initial residual = 0.0072513, Final residual = 9.61541e-05, No Iterations 36
linear solve p 32
time step continuity errors : sum local = 1.61243e-07, global = -2.08751e-20, cumulative = -5.07387e-20
ExecutionTime = 18.87 s  ClockTime = 2 s

End

