/*---------------------------------------------------------------------------*\
  =========                 |
  \\      /  F ield         | OpenFOAM: The Open Source CFD Toolbox
   \\    /   O peration     | Website:  https://openfoam.org
    \\  /    A nd           | Version:  8
     \\/     M anipulation  |
\*---------------------------------------------------------------------------*/
Build  : 8-ef60d22ea792
Exec   : icoFoam
Date   : Jul 29 2021
Time   : 08:00:37
Host   : "nla-gpu2.ianm.kit.edu"
PID    : 1969792
I/O    : uncollated
Case   : /home/greole/code/OBR/lidDrivenCavity3D/Variation_mesh/15/Variation_matrix_solver/CG_BJ_HIP/base
nProcs : 1
sigFpe : Enabling floating point exception trapping (FOAM_SIGFPE).
fileModificationChecking : Monitoring run-time modified files using timeStampMaster (fileModificationSkew 10)
allowSystemOperations : Allowing user-supplied system call operations

// * * * * * * * * * * * * * * * * * * * * * * * * * * * * * * * * * * * * * //
Create time

Create mesh for time = 0

Reading transportProperties

Reading field p

Reading field U

Reading/calculating face flux field phi


Starting time loop

Time = 0.001

Courant Number mean: 0 max: 0
DILUPBiCGStab:  Solving for Ux, Initial residual = 1, Final residual = 1.1028e-13, No Iterations 5
DILUPBiCGStab:  Solving for Uy:  solution singularity
DILUPBiCGStab:  Solving for Uz:  solution singularity
linear solve U 1261
[OGL LOG] init_host_sparsity_pattern : 1 ms
[OGL LOG] matrix not stored update host matrix
[OGL LOG] update_host_mtx : 0 ms
[OGL LOG] matrix is not yet sorted, compute sorting idxs
[OGL LOG] compute_sort : 22 ms
[OGL LOG] matrix is not yet sorted, sorting host matrix
[OGL LOG] sort_host_mtx_sparsity_pattern : 0 ms
[OGL LOG] sort_host_mtx : 0 ms
[OGL LOG] init_preconditioner : 50 ms
 CG create  precond 
[OGL LOG] solve : 50 ms
BJhipGKOCG:  Solving for p, Initial residual = 1, Final residual = 8.8985e-05, No Iterations 94
linear solve p 545994
time step continuity errors : sum local = 3.73784e-08, global = 3.90057e-21, cumulative = 3.90057e-21
[OGL LOG] init_host_sparsity_pattern : 1 ms
[OGL LOG] matrix not stored update host matrix
[OGL LOG] update_host_mtx : 0 ms
[OGL LOG] matrix is not yet sorted, sorting host matrix
[OGL LOG] sort_host_mtx_sparsity_pattern : 0 ms
[OGL LOG] sort_host_mtx : 0 ms
[OGL LOG] init_preconditioner : 0 ms
 CG create  precond 
[OGL LOG] solve : 13 ms
BJhipGKOCG:  Solving for p, Initial residual = 0.316804, Final residual = 8.85325e-05, No Iterations 89
linear solve p 17313
time step continuity errors : sum local = 6.50866e-08, global = 5.61305e-21, cumulative = 9.51362e-21
ExecutionTime = 0.66 s  ClockTime = 1 s

Time = 0.002

Courant Number mean: 0.00559441 max: 0.0357002
DILUPBiCGStab:  Solving for Ux, Initial residual = 0.242393, Final residual = 1.13972e-14, No Iterations 5
DILUPBiCGStab:  Solving for Uy, Initial residual = 0.296208, Final residual = 1.1243e-14, No Iterations 5
DILUPBiCGStab:  Solving for Uz, Initial residual = 0.684738, Final residual = 3.38467e-14, No Iterations 5
linear solve U 2235
[OGL LOG] init_host_sparsity_pattern : 1 ms
[OGL LOG] matrix not stored update host matrix
[OGL LOG] update_host_mtx : 0 ms
[OGL LOG] matrix is not yet sorted, sorting host matrix
[OGL LOG] sort_host_mtx_sparsity_pattern : 0 ms
[OGL LOG] sort_host_mtx : 0 ms
[OGL LOG] init_preconditioner : 0 ms
 CG create  precond 
[OGL LOG] solve : 12 ms
BJhipGKOCG:  Solving for p, Initial residual = 0.156969, Final residual = 9.01756e-05, No Iterations 82
linear solve p 16320
time step continuity errors : sum local = 6.46395e-08, global = 5.74302e-21, cumulative = 1.52566e-20
[OGL LOG] init_host_sparsity_pattern : 1 ms
[OGL LOG] matrix not stored update host matrix
[OGL LOG] update_host_mtx : 0 ms
[OGL LOG] matrix is not yet sorted, sorting host matrix
[OGL LOG] sort_host_mtx_sparsity_pattern : 0 ms
[OGL LOG] sort_host_mtx : 0 ms
[OGL LOG] init_preconditioner : 0 ms
 CG create  precond 
[OGL LOG] solve : 11 ms
BJhipGKOCG:  Solving for p, Initial residual = 0.0605701, Final residual = 8.2831e-05, No Iterations 77
linear solve p 15817
time step continuity errors : sum local = 6.46463e-08, global = 1.4334e-20, cumulative = 2.95906e-20
ExecutionTime = 0.72 s  ClockTime = 1 s

Time = 0.003

Courant Number mean: 0.00940318 max: 0.0587296
DILUPBiCGStab:  Solving for Ux, Initial residual = 0.117973, Final residual = 5.344e-15, No Iterations 5
DILUPBiCGStab:  Solving for Uy, Initial residual = 0.148717, Final residual = 5.3485e-15, No Iterations 5
DILUPBiCGStab:  Solving for Uz, Initial residual = 0.319414, Final residual = 1.48423e-14, No Iterations 5
linear solve U 2162
[OGL LOG] init_host_sparsity_pattern : 1 ms
[OGL LOG] matrix not stored update host matrix
[OGL LOG] update_host_mtx : 0 ms
[OGL LOG] matrix is not yet sorted, sorting host matrix
[OGL LOG] sort_host_mtx_sparsity_pattern : 0 ms
[OGL LOG] sort_host_mtx : 0 ms
[OGL LOG] init_preconditioner : 0 ms
 CG create  precond 
[OGL LOG] solve : 12 ms
BJhipGKOCG:  Solving for p, Initial residual = 0.0758882, Final residual = 8.87359e-05, No Iterations 79
linear solve p 16793
time step continuity errors : sum local = 7.1236e-08, global = -1.63544e-20, cumulative = 1.32362e-20
[OGL LOG] init_host_sparsity_pattern : 1 ms
[OGL LOG] matrix not stored update host matrix
[OGL LOG] update_host_mtx : 0 ms
[OGL LOG] matrix is not yet sorted, sorting host matrix
[OGL LOG] sort_host_mtx_sparsity_pattern : 0 ms
[OGL LOG] sort_host_mtx : 0 ms
[OGL LOG] init_preconditioner : 0 ms
 CG create  precond 
[OGL LOG] solve : 11 ms
BJhipGKOCG:  Solving for p, Initial residual = 0.0340652, Final residual = 7.43599e-05, No Iterations 75
linear solve p 15412
time step continuity errors : sum local = 6.23292e-08, global = 3.66535e-21, cumulative = 1.69016e-20
ExecutionTime = 0.78 s  ClockTime = 1 s

Time = 0.004

Courant Number mean: 0.0121905 max: 0.0737268
DILUPBiCGStab:  Solving for Ux, Initial residual = 0.0723349, Final residual = 2.98996e-15, No Iterations 5
DILUPBiCGStab:  Solving for Uy, Initial residual = 0.0916578, Final residual = 3.02129e-15, No Iterations 5
DILUPBiCGStab:  Solving for Uz, Initial residual = 0.182401, Final residual = 7.95617e-15, No Iterations 5
linear solve U 2146
[OGL LOG] init_host_sparsity_pattern : 1 ms
[OGL LOG] matrix not stored update host matrix
[OGL LOG] update_host_mtx : 0 ms
[OGL LOG] matrix is not yet sorted, sorting host matrix
[OGL LOG] sort_host_mtx_sparsity_pattern : 0 ms
[OGL LOG] sort_host_mtx : 0 ms
[OGL LOG] init_preconditioner : 0 ms
 CG create  precond 
[OGL LOG] solve : 11 ms
BJhipGKOCG:  Solving for p, Initial residual = 0.049196, Final residual = 7.62941e-05, No Iterations 77
linear solve p 15712
time step continuity errors : sum local = 6.51346e-08, global = 2.03737e-20, cumulative = 3.72753e-20
[OGL LOG] init_host_sparsity_pattern : 1 ms
[OGL LOG] matrix not stored update host matrix
[OGL LOG] update_host_mtx : 0 ms
[OGL LOG] matrix is not yet sorted, sorting host matrix
[OGL LOG] sort_host_mtx_sparsity_pattern : 0 ms
[OGL LOG] sort_host_mtx : 0 ms
[OGL LOG] init_preconditioner : 0 ms
 CG create  precond 
[OGL LOG] solve : 11 ms
BJhipGKOCG:  Solving for p, Initial residual = 0.0220925, Final residual = 7.23317e-05, No Iterations 74
linear solve p 15165
time step continuity errors : sum local = 6.33059e-08, global = -6.28021e-21, cumulative = 3.09951e-20
ExecutionTime = 0.84 s  ClockTime = 1 s

Time = 0.005

Courant Number mean: 0.014306 max: 0.0838051
DILUPBiCGStab:  Solving for Ux, Initial residual = 0.0485641, Final residual = 1.79907e-15, No Iterations 5
DILUPBiCGStab:  Solving for Uy, Initial residual = 0.0627374, Final residual = 1.7476e-15, No Iterations 5
DILUPBiCGStab:  Solving for Uz, Initial residual = 0.12972, Final residual = 5.47922e-15, No Iterations 5
linear solve U 2160
[OGL LOG] init_host_sparsity_pattern : 1 ms
[OGL LOG] matrix not stored update host matrix
[OGL LOG] update_host_mtx : 0 ms
[OGL LOG] matrix is not yet sorted, sorting host matrix
[OGL LOG] sort_host_mtx_sparsity_pattern : 0 ms
[OGL LOG] sort_host_mtx : 0 ms
[OGL LOG] init_preconditioner : 0 ms
 CG create  precond 
[OGL LOG] solve : 11 ms
BJhipGKOCG:  Solving for p, Initial residual = 0.035935, Final residual = 9.7838e-05, No Iterations 75
linear solve p 15357
time step continuity errors : sum local = 8.67894e-08, global = 2.48101e-20, cumulative = 5.58051e-20
[OGL LOG] init_host_sparsity_pattern : 1 ms
[OGL LOG] matrix not stored update host matrix
[OGL LOG] update_host_mtx : 0 ms
[OGL LOG] matrix is not yet sorted, sorting host matrix
[OGL LOG] sort_host_mtx_sparsity_pattern : 0 ms
[OGL LOG] sort_host_mtx : 0 ms
[OGL LOG] init_preconditioner : 0 ms
 CG create  precond 
[OGL LOG] solve : 11 ms
BJhipGKOCG:  Solving for p, Initial residual = 0.0152467, Final residual = 8.82086e-05, No Iterations 72
linear solve p 14911
time step continuity errors : sum local = 7.96448e-08, global = -1.6692e-20, cumulative = 3.91131e-20
ExecutionTime = 0.89 s  ClockTime = 1 s

Time = 0.006

Courant Number mean: 0.0159484 max: 0.0908032
DILUPBiCGStab:  Solving for Ux, Initial residual = 0.0353496, Final residual = 1.17444e-15, No Iterations 5
DILUPBiCGStab:  Solving for Uy, Initial residual = 0.0460981, Final residual = 1.06315e-15, No Iterations 5
DILUPBiCGStab:  Solving for Uz, Initial residual = 0.0994511, Final residual = 3.99733e-15, No Iterations 5
linear solve U 2152
[OGL LOG] init_host_sparsity_pattern : 1 ms
[OGL LOG] matrix not stored update host matrix
[OGL LOG] update_host_mtx : 0 ms
[OGL LOG] matrix is not yet sorted, sorting host matrix
[OGL LOG] sort_host_mtx_sparsity_pattern : 0 ms
[OGL LOG] sort_host_mtx : 0 ms
[OGL LOG] init_preconditioner : 0 ms
 CG create  precond 
[OGL LOG] solve : 11 ms
BJhipGKOCG:  Solving for p, Initial residual = 0.0288413, Final residual = 9.18222e-05, No Iterations 74
linear solve p 15194
time step continuity errors : sum local = 8.41638e-08, global = -1.77192e-20, cumulative = 2.13939e-20
[OGL LOG] init_host_sparsity_pattern : 1 ms
[OGL LOG] matrix not stored update host matrix
[OGL LOG] update_host_mtx : 0 ms
[OGL LOG] matrix is not yet sorted, sorting host matrix
[OGL LOG] sort_host_mtx_sparsity_pattern : 0 ms
[OGL LOG] sort_host_mtx : 0 ms
[OGL LOG] init_preconditioner : 0 ms
 CG create  precond 
[OGL LOG] solve : 10 ms
BJhipGKOCG:  Solving for p, Initial residual = 0.0110215, Final residual = 9.31738e-05, No Iterations 70
linear solve p 14550
time step continuity errors : sum local = 8.6656e-08, global = 3.3914e-20, cumulative = 5.53079e-20
ExecutionTime = 0.94 s  ClockTime = 1 s

Time = 0.007

Courant Number mean: 0.0172719 max: 0.0958251
DILUPBiCGStab:  Solving for Ux, Initial residual = 0.0271632, Final residual = 8.70848e-16, No Iterations 5
DILUPBiCGStab:  Solving for Uy, Initial residual = 0.0356267, Final residual = 7.40825e-16, No Iterations 5
DILUPBiCGStab:  Solving for Uz, Initial residual = 0.0794463, Final residual = 3.12034e-15, No Iterations 5
linear solve U 2323
[OGL LOG] init_host_sparsity_pattern : 1 ms
[OGL LOG] matrix not stored update host matrix
[OGL LOG] update_host_mtx : 0 ms
[OGL LOG] matrix is not yet sorted, sorting host matrix
[OGL LOG] sort_host_mtx_sparsity_pattern : 0 ms
[OGL LOG] sort_host_mtx : 0 ms
[OGL LOG] init_preconditioner : 0 ms
 CG create  precond 
[OGL LOG] solve : 11 ms
BJhipGKOCG:  Solving for p, Initial residual = 0.0217441, Final residual = 8.79891e-05, No Iterations 73
linear solve p 15075
time step continuity errors : sum local = 8.26822e-08, global = -1.21357e-20, cumulative = 4.31722e-20
[OGL LOG] init_host_sparsity_pattern : 1 ms
[OGL LOG] matrix not stored update host matrix
[OGL LOG] update_host_mtx : 0 ms
[OGL LOG] matrix is not yet sorted, sorting host matrix
[OGL LOG] sort_host_mtx_sparsity_pattern : 0 ms
[OGL LOG] sort_host_mtx : 0 ms
[OGL LOG] init_preconditioner : 0 ms
 CG create  precond 
[OGL LOG] solve : 5 ms
BJhipGKOCG:  Solving for p, Initial residual = 0.00860086, Final residual = 8.93814e-05, No Iterations 33
linear solve p 9121
time step continuity errors : sum local = 1.10361e-07, global = 3.25698e-20, cumulative = 7.5742e-20
ExecutionTime = 0.98 s  ClockTime = 1 s

Time = 0.008

Courant Number mean: 0.0183554 max: 0.0995503
DILUPBiCGStab:  Solving for Ux, Initial residual = 0.0216519, Final residual = 6.39037e-16, No Iterations 5
DILUPBiCGStab:  Solving for Uy, Initial residual = 0.0286206, Final residual = 5.78671e-16, No Iterations 5
DILUPBiCGStab:  Solving for Uz, Initial residual = 0.0649636, Final residual = 2.4936e-15, No Iterations 5
linear solve U 2164
[OGL LOG] init_host_sparsity_pattern : 1 ms
[OGL LOG] matrix not stored update host matrix
[OGL LOG] update_host_mtx : 0 ms
[OGL LOG] matrix is not yet sorted, sorting host matrix
[OGL LOG] sort_host_mtx_sparsity_pattern : 0 ms
[OGL LOG] sort_host_mtx : 0 ms
[OGL LOG] init_preconditioner : 0 ms
 CG create  precond 
[OGL LOG] solve : 5 ms
BJhipGKOCG:  Solving for p, Initial residual = 0.0163342, Final residual = 9.85258e-05, No Iterations 34
linear solve p 9866
time step continuity errors : sum local = 9.59003e-08, global = 2.69702e-21, cumulative = 7.8439e-20
[OGL LOG] init_host_sparsity_pattern : 1 ms
[OGL LOG] matrix not stored update host matrix
[OGL LOG] update_host_mtx : 0 ms
[OGL LOG] matrix is not yet sorted, sorting host matrix
[OGL LOG] sort_host_mtx_sparsity_pattern : 0 ms
[OGL LOG] sort_host_mtx : 0 ms
[OGL LOG] init_preconditioner : 0 ms
 CG create  precond 
[OGL LOG] solve : 4 ms
BJhipGKOCG:  Solving for p, Initial residual = 0.00664682, Final residual = 9.77994e-05, No Iterations 29
linear solve p 8555
time step continuity errors : sum local = 1.08664e-07, global = -5.45933e-20, cumulative = 2.38457e-20
ExecutionTime = 1.01 s  ClockTime = 1 s

Time = 0.009

Courant Number mean: 0.0192552 max: 0.102395
DILUPBiCGStab:  Solving for Ux, Initial residual = 0.0176813, Final residual = 4.36975e-16, No Iterations 5
DILUPBiCGStab:  Solving for Uy, Initial residual = 0.0236222, Final residual = 4.83065e-16, No Iterations 5
DILUPBiCGStab:  Solving for Uz, Initial residual = 0.0544414, Final residual = 1.87805e-15, No Iterations 5
linear solve U 2167
[OGL LOG] init_host_sparsity_pattern : 1 ms
[OGL LOG] matrix not stored update host matrix
[OGL LOG] update_host_mtx : 0 ms
[OGL LOG] matrix is not yet sorted, sorting host matrix
[OGL LOG] sort_host_mtx_sparsity_pattern : 0 ms
[OGL LOG] sort_host_mtx : 0 ms
[OGL LOG] init_preconditioner : 0 ms
 CG create  precond 
[OGL LOG] solve : 5 ms
BJhipGKOCG:  Solving for p, Initial residual = 0.0132668, Final residual = 8.21628e-05, No Iterations 34
linear solve p 9279
time step continuity errors : sum local = 9.65216e-08, global = 3.82912e-21, cumulative = 2.76748e-20
[OGL LOG] init_host_sparsity_pattern : 1 ms
[OGL LOG] matrix not stored update host matrix
[OGL LOG] update_host_mtx : 0 ms
[OGL LOG] matrix is not yet sorted, sorting host matrix
[OGL LOG] sort_host_mtx_sparsity_pattern : 0 ms
[OGL LOG] sort_host_mtx : 0 ms
[OGL LOG] init_preconditioner : 0 ms
 CG create  precond 
[OGL LOG] solve : 4 ms
BJhipGKOCG:  Solving for p, Initial residual = 0.0053939, Final residual = 7.97347e-05, No Iterations 29
linear solve p 8549
time step continuity errors : sum local = 8.22958e-08, global = 3.79467e-20, cumulative = 6.56215e-20
ExecutionTime = 1.03 s  ClockTime = 1 s

Time = 0.01

Courant Number mean: 0.0200143 max: 0.104627
DILUPBiCGStab:  Solving for Ux, Initial residual = 0.0147299, Final residual = 2.84321e-16, No Iterations 5
DILUPBiCGStab:  Solving for Uy, Initial residual = 0.0199284, Final residual = 4.01652e-16, No Iterations 5
DILUPBiCGStab:  Solving for Uz, Initial residual = 0.04634, Final residual = 1.54047e-15, No Iterations 5
linear solve U 2191
[OGL LOG] init_host_sparsity_pattern : 1 ms
[OGL LOG] matrix not stored update host matrix
[OGL LOG] update_host_mtx : 0 ms
[OGL LOG] matrix is not yet sorted, sorting host matrix
[OGL LOG] sort_host_mtx_sparsity_pattern : 0 ms
[OGL LOG] sort_host_mtx : 0 ms
[OGL LOG] init_preconditioner : 0 ms
 CG create  precond 
[OGL LOG] solve : 5 ms
BJhipGKOCG:  Solving for p, Initial residual = 0.0111358, Final residual = 8.68973e-05, No Iterations 34
linear solve p 9263
time step continuity errors : sum local = 1.17232e-07, global = 4.95419e-21, cumulative = 7.05757e-20
[OGL LOG] init_host_sparsity_pattern : 1 ms
[OGL LOG] matrix not stored update host matrix
[OGL LOG] update_host_mtx : 0 ms
[OGL LOG] matrix is not yet sorted, sorting host matrix
[OGL LOG] sort_host_mtx_sparsity_pattern : 0 ms
[OGL LOG] sort_host_mtx : 0 ms
[OGL LOG] init_preconditioner : 0 ms
 CG create  precond 
[OGL LOG] solve : 4 ms
BJhipGKOCG:  Solving for p, Initial residual = 0.00449091, Final residual = 9.46097e-05, No Iterations 28
linear solve p 8413
time step continuity errors : sum local = 1.14806e-07, global = 5.54705e-20, cumulative = 1.26046e-19
ExecutionTime = 1.07 s  ClockTime = 1 s

End

