/*---------------------------------------------------------------------------*\
  =========                 |
  \\      /  F ield         | OpenFOAM: The Open Source CFD Toolbox
   \\    /   O peration     | Website:  https://openfoam.org
    \\  /    A nd           | Version:  8
     \\/     M anipulation  |
\*---------------------------------------------------------------------------*/
Build  : 8-40a5a48f630f
Exec   : icoFoam
Date   : Jul 28 2021
Time   : 13:28:05
Host   : "uc2n446.localdomain"
PID    : 418774
I/O    : uncollated
Case   : /pfs/data5/home/kit/scc/nq7776/code/OBR/lidDrivenCavity3D/Variation_mesh/70/Variation_matrix_solver/BiCGStab_BJ_OMP/base
nProcs : 1
sigFpe : Enabling floating point exception trapping (FOAM_SIGFPE).
fileModificationChecking : Monitoring run-time modified files using timeStampMaster (fileModificationSkew 10)
allowSystemOperations : Allowing user-supplied system call operations

// * * * * * * * * * * * * * * * * * * * * * * * * * * * * * * * * * * * * * //
Create time

Create mesh for time = 0

Reading transportProperties

Reading field p

Reading field U

Reading/calculating face flux field phi


Starting time loop

Time = 0.001

Courant Number mean: 0 max: 0
nonePBiCGStab:  Solving for Ux, Initial residual = 1, Final residual = 0.0584718, No Iterations 5
nonePBiCGStab:  Solving for Uy, Initial residual = 0, Final residual = 0, No Iterations 0
nonePBiCGStab:  Solving for Uz, Initial residual = 0, Final residual = 0, No Iterations 0
linear solve U 86
[OGL LOG] init_host_sparsity_pattern : 97 ms
[OGL LOG] matrix not stored update host matrix
[OGL LOG] update_host_mtx : 50 ms
[OGL LOG] matrix is not yet sorted, compute sorting idxs
[OGL LOG] compute_sort : 2941 ms
[OGL LOG] matrix is not yet sorted, sorting host matrix
[OGL LOG] sort_host_mtx_sparsity_pattern : 70 ms
[OGL LOG] sort_host_mtx : 42 ms
[OGL LOG] init_preconditioner : 11 ms
[OGL LOG] solve : 3943 ms
BJompGKOBiCGStab:  Solving for p, Initial residual = 1, Final residual = 7.96565e-05, No Iterations 341
linear solve p 7233
time step continuity errors : sum local = 1.4214e-07, global = -1.37226e-20, cumulative = -1.37226e-20
[OGL LOG] init_host_sparsity_pattern : 97 ms
[OGL LOG] matrix not stored update host matrix
[OGL LOG] update_host_mtx : 50 ms
[OGL LOG] matrix is not yet sorted, sorting host matrix
[OGL LOG] sort_host_mtx_sparsity_pattern : 72 ms
[OGL LOG] sort_host_mtx : 35 ms
[OGL LOG] init_preconditioner : 0 ms
[OGL LOG] solve : 3557 ms
BJompGKOBiCGStab:  Solving for p, Initial residual = 0.681328, Final residual = 1.24667e-05, No Iterations 347
linear solve p 3869
time step continuity errors : sum local = 4.66339e-06, global = -5.49536e-21, cumulative = -1.9218e-20
ExecutionTime = 155.21 s  ClockTime = 13 s

Time = 0.002

Courant Number mean: 0.0344613 max: 0.514721
nonePBiCGStab:  Solving for Ux, Initial residual = 0.148698, Final residual = 0.0242542, No Iterations 5
nonePBiCGStab:  Solving for Uy, Initial residual = 0.378639, Final residual = 0.0585287, No Iterations 5
nonePBiCGStab:  Solving for Uz, Initial residual = 0.945894, Final residual = 0.184812, No Iterations 5
linear solve U 173
[OGL LOG] init_host_sparsity_pattern : 93 ms
[OGL LOG] matrix not stored update host matrix
[OGL LOG] update_host_mtx : 56 ms
[OGL LOG] matrix is not yet sorted, sorting host matrix
[OGL LOG] sort_host_mtx_sparsity_pattern : 80 ms
[OGL LOG] sort_host_mtx : 35 ms
[OGL LOG] init_preconditioner : 0 ms
[OGL LOG] solve : 3693 ms
BJompGKOBiCGStab:  Solving for p, Initial residual = 0.683448, Final residual = 2.86511e-05, No Iterations 349
linear solve p 4017
time step continuity errors : sum local = 6.68623e-06, global = -6.14573e-22, cumulative = -1.98325e-20
[OGL LOG] init_host_sparsity_pattern : 94 ms
[OGL LOG] matrix not stored update host matrix
[OGL LOG] update_host_mtx : 50 ms
[OGL LOG] matrix is not yet sorted, sorting host matrix
[OGL LOG] sort_host_mtx_sparsity_pattern : 70 ms
[OGL LOG] sort_host_mtx : 35 ms
[OGL LOG] init_preconditioner : 0 ms
[OGL LOG] solve : 3478 ms
BJompGKOBiCGStab:  Solving for p, Initial residual = 0.603337, Final residual = 6.21422e-05, No Iterations 352
linear solve p 3772
time step continuity errors : sum local = 2.15956e-06, global = 4.90275e-21, cumulative = -1.49298e-20
ExecutionTime = 299.61 s  ClockTime = 21 s

Time = 0.003

Courant Number mean: 0.0531939 max: 0.605793
nonePBiCGStab:  Solving for Ux, Initial residual = 0.0556305, Final residual = 0.00777756, No Iterations 5
nonePBiCGStab:  Solving for Uy, Initial residual = 0.137708, Final residual = 0.0257834, No Iterations 5
nonePBiCGStab:  Solving for Uz, Initial residual = 0.489451, Final residual = 0.112066, No Iterations 5
linear solve U 174
[OGL LOG] init_host_sparsity_pattern : 93 ms
[OGL LOG] matrix not stored update host matrix
[OGL LOG] update_host_mtx : 50 ms
[OGL LOG] matrix is not yet sorted, sorting host matrix
[OGL LOG] sort_host_mtx_sparsity_pattern : 71 ms
[OGL LOG] sort_host_mtx : 35 ms
[OGL LOG] init_preconditioner : 0 ms
[OGL LOG] solve : 3083 ms
BJompGKOBiCGStab:  Solving for p, Initial residual = 0.612893, Final residual = 8.84205e-05, No Iterations 331
linear solve p 3381
time step continuity errors : sum local = 1.42295e-07, global = 2.69574e-21, cumulative = -1.22341e-20
[OGL LOG] init_host_sparsity_pattern : 94 ms
[OGL LOG] matrix not stored update host matrix
[OGL LOG] update_host_mtx : 50 ms
[OGL LOG] matrix is not yet sorted, sorting host matrix
[OGL LOG] sort_host_mtx_sparsity_pattern : 72 ms
[OGL LOG] sort_host_mtx : 35 ms
[OGL LOG] init_preconditioner : 0 ms
[OGL LOG] solve : 3071 ms
BJompGKOBiCGStab:  Solving for p, Initial residual = 0.544711, Final residual = 3.11226e-05, No Iterations 322
linear solve p 3367
time step continuity errors : sum local = 1.67116e-06, global = -8.10194e-21, cumulative = -2.0336e-20
ExecutionTime = 423.7 s  ClockTime = 28 s

Time = 0.004

Courant Number mean: 0.0637331 max: 0.623546
nonePBiCGStab:  Solving for Ux, Initial residual = 0.0336514, Final residual = 0.00423359, No Iterations 5
nonePBiCGStab:  Solving for Uy, Initial residual = 0.0894755, Final residual = 0.0119159, No Iterations 5
nonePBiCGStab:  Solving for Uz, Initial residual = 0.294489, Final residual = 0.0501574, No Iterations 5
linear solve U 173
[OGL LOG] init_host_sparsity_pattern : 93 ms
[OGL LOG] matrix not stored update host matrix
[OGL LOG] update_host_mtx : 51 ms
[OGL LOG] matrix is not yet sorted, sorting host matrix
[OGL LOG] sort_host_mtx_sparsity_pattern : 72 ms
[OGL LOG] sort_host_mtx : 35 ms
[OGL LOG] init_preconditioner : 0 ms
[OGL LOG] solve : 3363 ms
BJompGKOBiCGStab:  Solving for p, Initial residual = 0.434511, Final residual = 9.83944e-05, No Iterations 337
linear solve p 3660
time step continuity errors : sum local = 7.13274e-08, global = -9.13657e-21, cumulative = -2.94726e-20
[OGL LOG] init_host_sparsity_pattern : 94 ms
[OGL LOG] matrix not stored update host matrix
[OGL LOG] update_host_mtx : 50 ms
[OGL LOG] matrix is not yet sorted, sorting host matrix
[OGL LOG] sort_host_mtx_sparsity_pattern : 69 ms
[OGL LOG] sort_host_mtx : 35 ms
[OGL LOG] init_preconditioner : 0 ms
[OGL LOG] solve : 2834 ms
BJompGKOBiCGStab:  Solving for p, Initial residual = 0.36336, Final residual = 2.82982e-05, No Iterations 292
linear solve p 3125
time step continuity errors : sum local = 1.81037e-08, global = -1.56659e-20, cumulative = -4.51385e-20
ExecutionTime = 548.58 s  ClockTime = 35 s

Time = 0.005

Courant Number mean: 0.0723571 max: 0.634634
nonePBiCGStab:  Solving for Ux, Initial residual = 0.0241889, Final residual = 0.00256206, No Iterations 5
nonePBiCGStab:  Solving for Uy, Initial residual = 0.0578081, Final residual = 0.00654163, No Iterations 5
nonePBiCGStab:  Solving for Uz, Initial residual = 0.141977, Final residual = 0.0264455, No Iterations 5
linear solve U 173
[OGL LOG] init_host_sparsity_pattern : 93 ms
[OGL LOG] matrix not stored update host matrix
[OGL LOG] update_host_mtx : 50 ms
[OGL LOG] matrix is not yet sorted, sorting host matrix
[OGL LOG] sort_host_mtx_sparsity_pattern : 69 ms
[OGL LOG] sort_host_mtx : 35 ms
[OGL LOG] init_preconditioner : 0 ms
[OGL LOG] solve : 1715 ms
BJompGKOBiCGStab:  Solving for p, Initial residual = 0.378536, Final residual = 9.67577e-05, No Iterations 172
linear solve p 2006
time step continuity errors : sum local = 9.20444e-08, global = -1.40108e-21, cumulative = -4.65396e-20
[OGL LOG] init_host_sparsity_pattern : 94 ms
[OGL LOG] matrix not stored update host matrix
[OGL LOG] update_host_mtx : 50 ms
[OGL LOG] matrix is not yet sorted, sorting host matrix
[OGL LOG] sort_host_mtx_sparsity_pattern : 69 ms
[OGL LOG] sort_host_mtx : 35 ms
[OGL LOG] init_preconditioner : 0 ms
[OGL LOG] solve : 1150 ms
BJompGKOBiCGStab:  Solving for p, Initial residual = 0.324282, Final residual = 8.67149e-05, No Iterations 118
linear solve p 1446
time step continuity errors : sum local = 9.08028e-08, global = 1.60853e-20, cumulative = -3.04543e-20
ExecutionTime = 607.05 s  ClockTime = 39 s

Time = 0.006

Courant Number mean: 0.0791304 max: 0.641376
nonePBiCGStab:  Solving for Ux, Initial residual = 0.0179819, Final residual = 0.00157182, No Iterations 5
nonePBiCGStab:  Solving for Uy, Initial residual = 0.0431051, Final residual = 0.00343909, No Iterations 5
nonePBiCGStab:  Solving for Uz, Initial residual = 0.11137, Final residual = 0.0163789, No Iterations 5
linear solve U 173
[OGL LOG] init_host_sparsity_pattern : 93 ms
[OGL LOG] matrix not stored update host matrix
[OGL LOG] update_host_mtx : 50 ms
[OGL LOG] matrix is not yet sorted, sorting host matrix
[OGL LOG] sort_host_mtx_sparsity_pattern : 69 ms
[OGL LOG] sort_host_mtx : 35 ms
[OGL LOG] init_preconditioner : 0 ms
[OGL LOG] solve : 1354 ms
BJompGKOBiCGStab:  Solving for p, Initial residual = 0.271132, Final residual = 9.73781e-05, No Iterations 141
linear solve p 1644
time step continuity errors : sum local = 9.23667e-08, global = 2.59503e-20, cumulative = -4.50396e-21
[OGL LOG] init_host_sparsity_pattern : 94 ms
[OGL LOG] matrix not stored update host matrix
[OGL LOG] update_host_mtx : 50 ms
[OGL LOG] matrix is not yet sorted, sorting host matrix
[OGL LOG] sort_host_mtx_sparsity_pattern : 72 ms
[OGL LOG] sort_host_mtx : 34 ms
[OGL LOG] init_preconditioner : 0 ms
[OGL LOG] solve : 1384 ms
BJompGKOBiCGStab:  Solving for p, Initial residual = 0.227245, Final residual = 9.64713e-05, No Iterations 142
linear solve p 1676
time step continuity errors : sum local = 5.89011e-08, global = 1.73745e-20, cumulative = 1.28705e-20
ExecutionTime = 662.98 s  ClockTime = 43 s

Time = 0.007

Courant Number mean: 0.0848411 max: 0.645963
nonePBiCGStab:  Solving for Ux, Initial residual = 0.0142165, Final residual = 0.00102297, No Iterations 5
nonePBiCGStab:  Solving for Uy, Initial residual = 0.034181, Final residual = 0.00249387, No Iterations 5
nonePBiCGStab:  Solving for Uz, Initial residual = 0.0833141, Final residual = 0.0123374, No Iterations 5
linear solve U 172
[OGL LOG] init_host_sparsity_pattern : 93 ms
[OGL LOG] matrix not stored update host matrix
[OGL LOG] update_host_mtx : 50 ms
[OGL LOG] matrix is not yet sorted, sorting host matrix
[OGL LOG] sort_host_mtx_sparsity_pattern : 70 ms
[OGL LOG] sort_host_mtx : 35 ms
[OGL LOG] init_preconditioner : 0 ms
[OGL LOG] solve : 2981 ms
BJompGKOBiCGStab:  Solving for p, Initial residual = 0.225422, Final residual = 6.9106e-05, No Iterations 298
linear solve p 3270
time step continuity errors : sum local = 3.25515e-08, global = -4.22417e-21, cumulative = 8.64635e-21
[OGL LOG] init_host_sparsity_pattern : 94 ms
[OGL LOG] matrix not stored update host matrix
[OGL LOG] update_host_mtx : 50 ms
[OGL LOG] matrix is not yet sorted, sorting host matrix
[OGL LOG] sort_host_mtx_sparsity_pattern : 70 ms
[OGL LOG] sort_host_mtx : 35 ms
[OGL LOG] init_preconditioner : 0 ms
[OGL LOG] solve : 2673 ms
BJompGKOBiCGStab:  Solving for p, Initial residual = 0.190675, Final residual = 9.63796e-05, No Iterations 275
linear solve p 2963
time step continuity errors : sum local = 4.73077e-08, global = 1.47219e-20, cumulative = 2.33682e-20
ExecutionTime = 777.01 s  ClockTime = 49 s

Time = 0.008

Courant Number mean: 0.0896296 max: 0.649526
nonePBiCGStab:  Solving for Ux, Initial residual = 0.0116106, Final residual = 0.000774093, No Iterations 5
nonePBiCGStab:  Solving for Uy, Initial residual = 0.0270325, Final residual = 0.00139008, No Iterations 5
nonePBiCGStab:  Solving for Uz, Initial residual = 0.0692405, Final residual = 0.00835114, No Iterations 5
linear solve U 172
[OGL LOG] init_host_sparsity_pattern : 93 ms
[OGL LOG] matrix not stored update host matrix
[OGL LOG] update_host_mtx : 50 ms
[OGL LOG] matrix is not yet sorted, sorting host matrix
[OGL LOG] sort_host_mtx_sparsity_pattern : 70 ms
[OGL LOG] sort_host_mtx : 35 ms
[OGL LOG] init_preconditioner : 0 ms
[OGL LOG] solve : 2311 ms
BJompGKOBiCGStab:  Solving for p, Initial residual = 0.167656, Final residual = 9.96349e-05, No Iterations 231
linear solve p 2601
time step continuity errors : sum local = 8.42512e-08, global = -2.19084e-20, cumulative = 1.45978e-21
[OGL LOG] init_host_sparsity_pattern : 94 ms
[OGL LOG] matrix not stored update host matrix
[OGL LOG] update_host_mtx : 50 ms
[OGL LOG] matrix is not yet sorted, sorting host matrix
[OGL LOG] sort_host_mtx_sparsity_pattern : 69 ms
[OGL LOG] sort_host_mtx : 35 ms
[OGL LOG] init_preconditioner : 0 ms
[OGL LOG] solve : 1198 ms
BJompGKOBiCGStab:  Solving for p, Initial residual = 0.141072, Final residual = 9.32808e-05, No Iterations 123
linear solve p 1489
time step continuity errors : sum local = 6.34666e-08, global = -1.66202e-20, cumulative = -1.51604e-20
ExecutionTime = 848.31 s  ClockTime = 54 s

Time = 0.009

Courant Number mean: 0.0937617 max: 0.652162
nonePBiCGStab:  Solving for Ux, Initial residual = 0.00953471, Final residual = 0.000587256, No Iterations 5
nonePBiCGStab:  Solving for Uy, Initial residual = 0.0228579, Final residual = 0.00118147, No Iterations 5
nonePBiCGStab:  Solving for Uz, Initial residual = 0.0568773, Final residual = 0.00758319, No Iterations 5
linear solve U 172
[OGL LOG] init_host_sparsity_pattern : 93 ms
[OGL LOG] matrix not stored update host matrix
[OGL LOG] update_host_mtx : 51 ms
[OGL LOG] matrix is not yet sorted, sorting host matrix
[OGL LOG] sort_host_mtx_sparsity_pattern : 70 ms
[OGL LOG] sort_host_mtx : 35 ms
[OGL LOG] init_preconditioner : 0 ms
[OGL LOG] solve : 2349 ms
BJompGKOBiCGStab:  Solving for p, Initial residual = 0.139014, Final residual = 9.50158e-05, No Iterations 234
linear solve p 2639
time step continuity errors : sum local = 2.50729e-07, global = -1.25389e-20, cumulative = -2.76994e-20
[OGL LOG] init_host_sparsity_pattern : 94 ms
[OGL LOG] matrix not stored update host matrix
[OGL LOG] update_host_mtx : 50 ms
[OGL LOG] matrix is not yet sorted, sorting host matrix
[OGL LOG] sort_host_mtx_sparsity_pattern : 70 ms
[OGL LOG] sort_host_mtx : 35 ms
[OGL LOG] init_preconditioner : 0 ms
[OGL LOG] solve : 1177 ms
BJompGKOBiCGStab:  Solving for p, Initial residual = 0.11793, Final residual = 9.82548e-05, No Iterations 122
linear solve p 1470
time step continuity errors : sum local = 4.62985e-08, global = 8.90038e-21, cumulative = -1.8799e-20
ExecutionTime = 919.97 s  ClockTime = 58 s

Time = 0.01

Courant Number mean: 0.0973399 max: 0.654326
nonePBiCGStab:  Solving for Ux, Initial residual = 0.00831151, Final residual = 0.000538694, No Iterations 5
nonePBiCGStab:  Solving for Uy, Initial residual = 0.0190895, Final residual = 0.00110969, No Iterations 5
nonePBiCGStab:  Solving for Uz, Initial residual = 0.0592877, Final residual = 0.0111384, No Iterations 5
linear solve U 173
[OGL LOG] init_host_sparsity_pattern : 93 ms
[OGL LOG] matrix not stored update host matrix
[OGL LOG] update_host_mtx : 50 ms
[OGL LOG] matrix is not yet sorted, sorting host matrix
[OGL LOG] sort_host_mtx_sparsity_pattern : 70 ms
[OGL LOG] sort_host_mtx : 35 ms
[OGL LOG] init_preconditioner : 0 ms
[OGL LOG] solve : 2466 ms
BJompGKOBiCGStab:  Solving for p, Initial residual = 0.114551, Final residual = 8.12186e-05, No Iterations 263
linear solve p 2764
time step continuity errors : sum local = 4.33319e-08, global = 1.52345e-20, cumulative = -3.56454e-21
[OGL LOG] init_host_sparsity_pattern : 94 ms
[OGL LOG] matrix not stored update host matrix
[OGL LOG] update_host_mtx : 52 ms
[OGL LOG] matrix is not yet sorted, sorting host matrix
[OGL LOG] sort_host_mtx_sparsity_pattern : 72 ms
[OGL LOG] sort_host_mtx : 35 ms
[OGL LOG] init_preconditioner : 0 ms
[OGL LOG] solve : 3205 ms
BJompGKOBiCGStab:  Solving for p, Initial residual = 0.0970267, Final residual = 8.29658e-05, No Iterations 329
linear solve p 3505
time step continuity errors : sum local = 4.88188e-08, global = -2.5328e-21, cumulative = -6.09734e-21
ExecutionTime = 1034.42 s  ClockTime = 65 s

End

