/*---------------------------------------------------------------------------*\
  =========                 |
  \\      /  F ield         | OpenFOAM: The Open Source CFD Toolbox
   \\    /   O peration     | Website:  https://openfoam.org
    \\  /    A nd           | Version:  8
     \\/     M anipulation  |
\*---------------------------------------------------------------------------*/
Build  : 8-ef60d22ea792
Exec   : icoFoam
Date   : Jul 29 2021
Time   : 02:55:32
Host   : "uc2n489.localdomain"
PID    : 3413797
I/O    : uncollated
Case   : /pfs/data5/home/kit/scc/nq7776/code/OBR/lidDrivenCavity3D/Variation_mesh/65/Variation_matrix_solver/IR_NoPrecond_CUDA/base
nProcs : 1
sigFpe : Enabling floating point exception trapping (FOAM_SIGFPE).
fileModificationChecking : Monitoring run-time modified files using timeStampMaster (fileModificationSkew 10)
allowSystemOperations : Allowing user-supplied system call operations

// * * * * * * * * * * * * * * * * * * * * * * * * * * * * * * * * * * * * * //
Create time

Create mesh for time = 0

Reading transportProperties

Reading field p

Reading field U

Reading/calculating face flux field phi


Starting time loop

Time = 0.001

Courant Number mean: 0 max: 0
DILUPBiCGStab:  Solving for Ux, Initial residual = 1, Final residual = 0.0009093, No Iterations 5
DILUPBiCGStab:  Solving for Uy:  solution singularity
DILUPBiCGStab:  Solving for Uz:  solution singularity
linear solve U 132812
[OGL LOG] init_host_sparsity_pattern : 77 ms
[OGL LOG] matrix not stored update host matrix
[OGL LOG] update_host_mtx : 40 ms
[OGL LOG] matrix is not yet sorted, compute sorting idxs
[OGL LOG] compute_sort : 2381 ms
[OGL LOG] matrix is not yet sorted, sorting host matrix
[OGL LOG] sort_host_mtx_sparsity_pattern : 54 ms
[OGL LOG] sort_host_mtx : 27 ms
[OGL LOG] init_preconditioner : 0 ms
[OGL LOG] solve : 122 ms
nonecudaGKOIR:  Solving for p, Initial residual = 1, Final residual = 1.10259e-05, No Iterations 3
linear solve p 3457722
time step continuity errors : sum local = 6.52366e-09, global = 8.86501e-21, cumulative = 8.86501e-21
[OGL LOG] init_host_sparsity_pattern : 73 ms
[OGL LOG] matrix not stored update host matrix
[OGL LOG] update_host_mtx : 40 ms
[OGL LOG] matrix is not yet sorted, sorting host matrix
[OGL LOG] sort_host_mtx_sparsity_pattern : 56 ms
[OGL LOG] sort_host_mtx : 27 ms
[OGL LOG] init_preconditioner : 0 ms
[OGL LOG] solve : 124 ms
nonecudaGKOIR:  Solving for p, Initial residual = 0.710559, Final residual = 5.49516e-06, No Iterations 3
linear solve p 340002
time step continuity errors : sum local = 4.3779e-09, global = 8.25463e-21, cumulative = 1.71196e-20
ExecutionTime = 5.08 s  ClockTime = 5 s

Time = 0.002

Courant Number mean: 0.036459 max: 0.470838
DILUPBiCGStab:  Solving for Ux, Initial residual = 0.154387, Final residual = 0.000271565, No Iterations 5
DILUPBiCGStab:  Solving for Uy, Initial residual = 0.350437, Final residual = 0.000506096, No Iterations 5
DILUPBiCGStab:  Solving for Uz, Initial residual = 0.982791, Final residual = 0.00176911, No Iterations 5
linear solve U 255622
[OGL LOG] init_host_sparsity_pattern : 73 ms
[OGL LOG] matrix not stored update host matrix
[OGL LOG] update_host_mtx : 38 ms
[OGL LOG] matrix is not yet sorted, sorting host matrix
[OGL LOG] sort_host_mtx_sparsity_pattern : 53 ms
[OGL LOG] sort_host_mtx : 28 ms
[OGL LOG] init_preconditioner : 0 ms
[OGL LOG] solve : 125 ms
nonecudaGKOIR:  Solving for p, Initial residual = 0.645931, Final residual = 3.18387e-06, No Iterations 3
linear solve p 335356
time step continuity errors : sum local = 2.68875e-09, global = -8.42123e-21, cumulative = 8.69841e-21
[OGL LOG] init_host_sparsity_pattern : 72 ms
[OGL LOG] matrix not stored update host matrix
[OGL LOG] update_host_mtx : 35 ms
[OGL LOG] matrix is not yet sorted, sorting host matrix
[OGL LOG] sort_host_mtx_sparsity_pattern : 51 ms
[OGL LOG] sort_host_mtx : 28 ms
[OGL LOG] init_preconditioner : 0 ms
[OGL LOG] solve : 125 ms
nonecudaGKOIR:  Solving for p, Initial residual = 0.569369, Final residual = 2.62958e-06, No Iterations 3
linear solve p 328696
time step continuity errors : sum local = 2.2749e-09, global = 6.7161e-21, cumulative = 1.54145e-20
ExecutionTime = 6.16 s  ClockTime = 6 s

Time = 0.003

Courant Number mean: 0.0547095 max: 0.564536
DILUPBiCGStab:  Solving for Ux, Initial residual = 0.0506125, Final residual = 5.48098e-05, No Iterations 5
DILUPBiCGStab:  Solving for Uy, Initial residual = 0.109588, Final residual = 0.000120713, No Iterations 5
DILUPBiCGStab:  Solving for Uz, Initial residual = 0.38829, Final residual = 0.000649282, No Iterations 5
linear solve U 251761
[OGL LOG] init_host_sparsity_pattern : 72 ms
[OGL LOG] matrix not stored update host matrix
[OGL LOG] update_host_mtx : 35 ms
[OGL LOG] matrix is not yet sorted, sorting host matrix
[OGL LOG] sort_host_mtx_sparsity_pattern : 50 ms
[OGL LOG] sort_host_mtx : 28 ms
[OGL LOG] init_preconditioner : 0 ms
[OGL LOG] solve : 118 ms
nonecudaGKOIR:  Solving for p, Initial residual = 0.547614, Final residual = 1.96968e-06, No Iterations 3
linear solve p 321826
time step continuity errors : sum local = 1.15354e-09, global = -3.26738e-21, cumulative = 1.21471e-20
[OGL LOG] init_host_sparsity_pattern : 73 ms
[OGL LOG] matrix not stored update host matrix
[OGL LOG] update_host_mtx : 35 ms
[OGL LOG] matrix is not yet sorted, sorting host matrix
[OGL LOG] sort_host_mtx_sparsity_pattern : 50 ms
[OGL LOG] sort_host_mtx : 28 ms
[OGL LOG] init_preconditioner : 0 ms
[OGL LOG] solve : 119 ms
nonecudaGKOIR:  Solving for p, Initial residual = 0.491358, Final residual = 1.46775e-06, No Iterations 3
linear solve p 323736
time step continuity errors : sum local = 8.39133e-10, global = -2.90841e-20, cumulative = -1.6937e-20
ExecutionTime = 7.22 s  ClockTime = 7 s

Time = 0.004

Courant Number mean: 0.0645905 max: 0.579603
DILUPBiCGStab:  Solving for Ux, Initial residual = 0.0290686, Final residual = 3.32273e-05, No Iterations 5
DILUPBiCGStab:  Solving for Uy, Initial residual = 0.0718667, Final residual = 5.5506e-05, No Iterations 5
DILUPBiCGStab:  Solving for Uz, Initial residual = 0.208367, Final residual = 0.000261135, No Iterations 5
linear solve U 258203
[OGL LOG] init_host_sparsity_pattern : 72 ms
[OGL LOG] matrix not stored update host matrix
[OGL LOG] update_host_mtx : 35 ms
[OGL LOG] matrix is not yet sorted, sorting host matrix
[OGL LOG] sort_host_mtx_sparsity_pattern : 52 ms
[OGL LOG] sort_host_mtx : 28 ms
[OGL LOG] init_preconditioner : 0 ms
[OGL LOG] solve : 95 ms
nonecudaGKOIR:  Solving for p, Initial residual = 0.316561, Final residual = 9.74735e-05, No Iterations 2
linear solve p 301327
time step continuity errors : sum local = 5.07009e-08, global = 1.13254e-20, cumulative = -5.61154e-21
[OGL LOG] init_host_sparsity_pattern : 72 ms
[OGL LOG] matrix not stored update host matrix
[OGL LOG] update_host_mtx : 35 ms
[OGL LOG] matrix is not yet sorted, sorting host matrix
[OGL LOG] sort_host_mtx_sparsity_pattern : 50 ms
[OGL LOG] sort_host_mtx : 28 ms
[OGL LOG] init_preconditioner : 0 ms
[OGL LOG] solve : 95 ms
nonecudaGKOIR:  Solving for p, Initial residual = 0.261801, Final residual = 8.7194e-05, No Iterations 2
linear solve p 299491
time step continuity errors : sum local = 4.59058e-08, global = -1.44098e-20, cumulative = -2.00214e-20
ExecutionTime = 8.25 s  ClockTime = 8 s

Time = 0.005

Courant Number mean: 0.0722268 max: 0.589262
DILUPBiCGStab:  Solving for Ux, Initial residual = 0.0206455, Final residual = 1.46625e-05, No Iterations 5
DILUPBiCGStab:  Solving for Uy, Initial residual = 0.0445523, Final residual = 3.50867e-05, No Iterations 5
DILUPBiCGStab:  Solving for Uz, Initial residual = 0.0749172, Final residual = 7.55597e-05, No Iterations 5
linear solve U 251440
[OGL LOG] init_host_sparsity_pattern : 72 ms
[OGL LOG] matrix not stored update host matrix
[OGL LOG] update_host_mtx : 35 ms
[OGL LOG] matrix is not yet sorted, sorting host matrix
[OGL LOG] sort_host_mtx_sparsity_pattern : 50 ms
[OGL LOG] sort_host_mtx : 28 ms
[OGL LOG] init_preconditioner : 0 ms
[OGL LOG] solve : 97 ms
nonecudaGKOIR:  Solving for p, Initial residual = 0.213938, Final residual = 6.64129e-05, No Iterations 2
linear solve p 301303
time step continuity errors : sum local = 3.02524e-08, global = 1.24344e-21, cumulative = -1.87779e-20
[OGL LOG] init_host_sparsity_pattern : 72 ms
[OGL LOG] matrix not stored update host matrix
[OGL LOG] update_host_mtx : 35 ms
[OGL LOG] matrix is not yet sorted, sorting host matrix
[OGL LOG] sort_host_mtx_sparsity_pattern : 50 ms
[OGL LOG] sort_host_mtx : 28 ms
[OGL LOG] init_preconditioner : 0 ms
[OGL LOG] solve : 95 ms
nonecudaGKOIR:  Solving for p, Initial residual = 0.179724, Final residual = 4.91994e-05, No Iterations 2
linear solve p 298950
time step continuity errors : sum local = 2.2281e-08, global = -7.73156e-22, cumulative = -1.95511e-20
ExecutionTime = 9.26 s  ClockTime = 9 s

Time = 0.006

Courant Number mean: 0.0781057 max: 0.595024
DILUPBiCGStab:  Solving for Ux, Initial residual = 0.0153431, Final residual = 1.31623e-05, No Iterations 5
DILUPBiCGStab:  Solving for Uy, Initial residual = 0.0341627, Final residual = 1.47389e-05, No Iterations 5
DILUPBiCGStab:  Solving for Uz, Initial residual = 0.0669808, Final residual = 6.49848e-05, No Iterations 5
linear solve U 252850
[OGL LOG] init_host_sparsity_pattern : 72 ms
[OGL LOG] matrix not stored update host matrix
[OGL LOG] update_host_mtx : 35 ms
[OGL LOG] matrix is not yet sorted, sorting host matrix
[OGL LOG] sort_host_mtx_sparsity_pattern : 50 ms
[OGL LOG] sort_host_mtx : 28 ms
[OGL LOG] init_preconditioner : 0 ms
[OGL LOG] solve : 95 ms
nonecudaGKOIR:  Solving for p, Initial residual = 0.126572, Final residual = 3.50909e-05, No Iterations 2
linear solve p 299119
time step continuity errors : sum local = 1.56766e-08, global = -2.95652e-23, cumulative = -1.95807e-20
[OGL LOG] init_host_sparsity_pattern : 72 ms
[OGL LOG] matrix not stored update host matrix
[OGL LOG] update_host_mtx : 35 ms
[OGL LOG] matrix is not yet sorted, sorting host matrix
[OGL LOG] sort_host_mtx_sparsity_pattern : 50 ms
[OGL LOG] sort_host_mtx : 28 ms
[OGL LOG] init_preconditioner : 0 ms
[OGL LOG] solve : 98 ms
nonecudaGKOIR:  Solving for p, Initial residual = 0.103632, Final residual = 2.5226e-05, No Iterations 2
linear solve p 302199
time step continuity errors : sum local = 1.13045e-08, global = -2.04389e-21, cumulative = -2.16246e-20
ExecutionTime = 10.28 s  ClockTime = 10 s

Time = 0.007

Courant Number mean: 0.0829416 max: 0.598974
DILUPBiCGStab:  Solving for Ux, Initial residual = 0.0122037, Final residual = 5.65276e-06, No Iterations 5
DILUPBiCGStab:  Solving for Uy, Initial residual = 0.0269887, Final residual = 1.48974e-05, No Iterations 5
DILUPBiCGStab:  Solving for Uz, Initial residual = 0.0482196, Final residual = 4.02448e-05, No Iterations 5
linear solve U 253539
[OGL LOG] init_host_sparsity_pattern : 73 ms
[OGL LOG] matrix not stored update host matrix
[OGL LOG] update_host_mtx : 38 ms
[OGL LOG] matrix is not yet sorted, sorting host matrix
[OGL LOG] sort_host_mtx_sparsity_pattern : 53 ms
[OGL LOG] sort_host_mtx : 28 ms
[OGL LOG] init_preconditioner : 0 ms
[OGL LOG] solve : 95 ms
nonecudaGKOIR:  Solving for p, Initial residual = 0.0842926, Final residual = 1.9664e-05, No Iterations 2
linear solve p 305972
time step continuity errors : sum local = 8.5166e-09, global = -4.91128e-21, cumulative = -2.65358e-20
[OGL LOG] init_host_sparsity_pattern : 72 ms
[OGL LOG] matrix not stored update host matrix
[OGL LOG] update_host_mtx : 35 ms
[OGL LOG] matrix is not yet sorted, sorting host matrix
[OGL LOG] sort_host_mtx_sparsity_pattern : 50 ms
[OGL LOG] sort_host_mtx : 28 ms
[OGL LOG] init_preconditioner : 0 ms
[OGL LOG] solve : 96 ms
nonecudaGKOIR:  Solving for p, Initial residual = 0.0697612, Final residual = 1.61696e-05, No Iterations 2
linear solve p 299414
time step continuity errors : sum local = 7.00255e-09, global = 1.44559e-20, cumulative = -1.208e-20
ExecutionTime = 11.29 s  ClockTime = 11 s

Time = 0.008

Courant Number mean: 0.0869904 max: 0.601972
DILUPBiCGStab:  Solving for Ux, Initial residual = 0.0100273, Final residual = 4.7144e-06, No Iterations 5
DILUPBiCGStab:  Solving for Uy, Initial residual = 0.0221827, Final residual = 6.39574e-06, No Iterations 5
DILUPBiCGStab:  Solving for Uz, Initial residual = 0.0413933, Final residual = 2.70838e-05, No Iterations 5
linear solve U 253337
[OGL LOG] init_host_sparsity_pattern : 72 ms
[OGL LOG] matrix not stored update host matrix
[OGL LOG] update_host_mtx : 35 ms
[OGL LOG] matrix is not yet sorted, sorting host matrix
[OGL LOG] sort_host_mtx_sparsity_pattern : 50 ms
[OGL LOG] sort_host_mtx : 28 ms
[OGL LOG] init_preconditioner : 0 ms
[OGL LOG] solve : 96 ms
nonecudaGKOIR:  Solving for p, Initial residual = 0.0539726, Final residual = 1.29581e-05, No Iterations 2
linear solve p 300052
time step continuity errors : sum local = 5.55933e-09, global = 2.77048e-21, cumulative = -9.30948e-21
[OGL LOG] init_host_sparsity_pattern : 72 ms
[OGL LOG] matrix not stored update host matrix
[OGL LOG] update_host_mtx : 35 ms
[OGL LOG] matrix is not yet sorted, sorting host matrix
[OGL LOG] sort_host_mtx_sparsity_pattern : 50 ms
[OGL LOG] sort_host_mtx : 28 ms
[OGL LOG] init_preconditioner : 0 ms
[OGL LOG] solve : 96 ms
nonecudaGKOIR:  Solving for p, Initial residual = 0.0448008, Final residual = 1.0278e-05, No Iterations 2
linear solve p 299672
time step continuity errors : sum local = 4.41632e-09, global = 1.20922e-21, cumulative = -8.10026e-21
ExecutionTime = 12.3 s  ClockTime = 12 s

Time = 0.009

Courant Number mean: 0.0904653 max: 0.604262
DILUPBiCGStab:  Solving for Ux, Initial residual = 0.00841019, Final residual = 2.58839e-06, No Iterations 5
DILUPBiCGStab:  Solving for Uy, Initial residual = 0.0187777, Final residual = 6.28939e-06, No Iterations 5
DILUPBiCGStab:  Solving for Uz, Initial residual = 0.0354077, Final residual = 2.01687e-05, No Iterations 5
linear solve U 251243
[OGL LOG] init_host_sparsity_pattern : 72 ms
[OGL LOG] matrix not stored update host matrix
[OGL LOG] update_host_mtx : 35 ms
[OGL LOG] matrix is not yet sorted, sorting host matrix
[OGL LOG] sort_host_mtx_sparsity_pattern : 51 ms
[OGL LOG] sort_host_mtx : 28 ms
[OGL LOG] init_preconditioner : 0 ms
[OGL LOG] solve : 97 ms
nonecudaGKOIR:  Solving for p, Initial residual = 0.0383449, Final residual = 8.17639e-06, No Iterations 2
linear solve p 301618
time step continuity errors : sum local = 3.48225e-09, global = 1.33494e-20, cumulative = 5.24912e-21
[OGL LOG] init_host_sparsity_pattern : 73 ms
[OGL LOG] matrix not stored update host matrix
[OGL LOG] update_host_mtx : 37 ms
[OGL LOG] matrix is not yet sorted, sorting host matrix
[OGL LOG] sort_host_mtx_sparsity_pattern : 54 ms
[OGL LOG] sort_host_mtx : 29 ms
[OGL LOG] init_preconditioner : 0 ms
[OGL LOG] solve : 99 ms
nonecudaGKOIR:  Solving for p, Initial residual = 0.0323553, Final residual = 6.39089e-06, No Iterations 2
linear solve p 313291
time step continuity errors : sum local = 2.72304e-09, global = 1.172e-20, cumulative = 1.69691e-20
ExecutionTime = 13.33 s  ClockTime = 13 s

Time = 0.01

Courant Number mean: 0.0934678 max: 0.606124
DILUPBiCGStab:  Solving for Ux, Initial residual = 0.00720628, Final residual = 2.07672e-06, No Iterations 5
DILUPBiCGStab:  Solving for Uy, Initial residual = 0.016093, Final residual = 2.527e-06, No Iterations 5
DILUPBiCGStab:  Solving for Uz, Initial residual = 0.0306987, Final residual = 1.48062e-05, No Iterations 5
linear solve U 252259
[OGL LOG] init_host_sparsity_pattern : 72 ms
[OGL LOG] matrix not stored update host matrix
[OGL LOG] update_host_mtx : 35 ms
[OGL LOG] matrix is not yet sorted, sorting host matrix
[OGL LOG] sort_host_mtx_sparsity_pattern : 51 ms
[OGL LOG] sort_host_mtx : 28 ms
[OGL LOG] init_preconditioner : 0 ms
[OGL LOG] solve : 98 ms
nonecudaGKOIR:  Solving for p, Initial residual = 0.0268394, Final residual = 5.04785e-06, No Iterations 2
linear solve p 302641
time step continuity errors : sum local = 2.14258e-09, global = -1.37708e-20, cumulative = 3.19834e-21
[OGL LOG] init_host_sparsity_pattern : 72 ms
[OGL LOG] matrix not stored update host matrix
[OGL LOG] update_host_mtx : 35 ms
[OGL LOG] matrix is not yet sorted, sorting host matrix
[OGL LOG] sort_host_mtx_sparsity_pattern : 51 ms
[OGL LOG] sort_host_mtx : 28 ms
[OGL LOG] init_preconditioner : 0 ms
[OGL LOG] solve : 100 ms
nonecudaGKOIR:  Solving for p, Initial residual = 0.023048, Final residual = 4.18858e-06, No Iterations 2
linear solve p 304886
time step continuity errors : sum local = 1.77948e-09, global = 1.02624e-20, cumulative = 1.34608e-20
ExecutionTime = 14.36 s  ClockTime = 14 s

End

