/*---------------------------------------------------------------------------*\
  =========                 |
  \\      /  F ield         | OpenFOAM: The Open Source CFD Toolbox
   \\    /   O peration     | Website:  https://openfoam.org
    \\  /    A nd           | Version:  8
     \\/     M anipulation  |
\*---------------------------------------------------------------------------*/
Build  : 8-ef60d22ea792
Exec   : icoFoam
Date   : Jul 28 2021
Time   : 15:20:59
Host   : "nla-gpu2.ianm.kit.edu"
PID    : 1509165
I/O    : uncollated
Case   : /home/greole/code/OBR/lidDrivenCavity3D/Variation_mesh/95/Variation_matrix_solver/CG_NoPrecond_Serial/base
nProcs : 1
sigFpe : Enabling floating point exception trapping (FOAM_SIGFPE).
fileModificationChecking : Monitoring run-time modified files using timeStampMaster (fileModificationSkew 10)
allowSystemOperations : Allowing user-supplied system call operations

// * * * * * * * * * * * * * * * * * * * * * * * * * * * * * * * * * * * * * //
Create time

Create mesh for time = 0

Reading transportProperties

Reading field p

Reading field U

Reading/calculating face flux field phi


Starting time loop

Time = 0.001

Courant Number mean: 0 max: 0
DILUPBiCGStab:  Solving for Ux, Initial residual = 1, Final residual = 0.00597808, No Iterations 5
DILUPBiCGStab:  Solving for Uy:  solution singularity
DILUPBiCGStab:  Solving for Uz:  solution singularity
linear solve U 355749
nonePCG:  Solving for p, Initial residual = 1, Final residual = 9.68592e-05, No Iterations 752
linear solve p 7742922
time step continuity errors : sum local = 5.59232e-08, global = 8.96573e-21, cumulative = 8.96573e-21
nonePCG:  Solving for p, Initial residual = 0.770646, Final residual = 9.71617e-05, No Iterations 743
linear solve p 7795764
time step continuity errors : sum local = 7.12459e-08, global = 5.2023e-21, cumulative = 1.4168e-20
ExecutionTime = 20 s  ClockTime = 20 s

Time = 0.002

Courant Number mean: 0.0534417 max: 0.757475
DILUPBiCGStab:  Solving for Ux, Initial residual = 0.140129, Final residual = 0.00255033, No Iterations 5
DILUPBiCGStab:  Solving for Uy, Initial residual = 0.419603, Final residual = 0.00695949, No Iterations 5
DILUPBiCGStab:  Solving for Uz, Initial residual = 0.989728, Final residual = 0.0177983, No Iterations 5
linear solve U 696200
nonePCG:  Solving for p, Initial residual = 0.783551, Final residual = 9.60704e-05, No Iterations 739
linear solve p 7682652
time step continuity errors : sum local = 9.51383e-08, global = -9.92444e-21, cumulative = 4.2436e-21
nonePCG:  Solving for p, Initial residual = 0.722895, Final residual = 9.62881e-05, No Iterations 737
linear solve p 7743612
time step continuity errors : sum local = 9.7317e-08, global = 7.0476e-21, cumulative = 1.12912e-20
ExecutionTime = 36.48 s  ClockTime = 37 s

Time = 0.003

Courant Number mean: 0.0810139 max: 0.886815
DILUPBiCGStab:  Solving for Ux, Initial residual = 0.0625977, Final residual = 0.00087712, No Iterations 5
DILUPBiCGStab:  Solving for Uy, Initial residual = 0.202715, Final residual = 0.00232247, No Iterations 5
DILUPBiCGStab:  Solving for Uz, Initial residual = 0.778863, Final residual = 0.0126324, No Iterations 5
linear solve U 693728
nonePCG:  Solving for p, Initial residual = 0.809016, Final residual = 9.82533e-05, No Iterations 440
linear solve p 4580583
time step continuity errors : sum local = 8.96928e-08, global = -9.78315e-22, cumulative = 1.03129e-20
nonePCG:  Solving for p, Initial residual = 0.776119, Final residual = 9.4625e-05, No Iterations 439
linear solve p 4584180
time step continuity errors : sum local = 8.25271e-08, global = 9.95747e-21, cumulative = 2.02704e-20
ExecutionTime = 46.71 s  ClockTime = 47 s

Time = 0.004

Courant Number mean: 0.0936152 max: 0.877113
DILUPBiCGStab:  Solving for Ux, Initial residual = 0.0356753, Final residual = 0.000617167, No Iterations 5
DILUPBiCGStab:  Solving for Uy, Initial residual = 0.148236, Final residual = 0.00224198, No Iterations 5
DILUPBiCGStab:  Solving for Uz, Initial residual = 0.579731, Final residual = 0.00799749, No Iterations 5
linear solve U 684823
nonePCG:  Solving for p, Initial residual = 0.704789, Final residual = 9.95386e-05, No Iterations 438
linear solve p 4568942
time step continuity errors : sum local = 8.27305e-08, global = 9.14954e-21, cumulative = 2.94199e-20
nonePCG:  Solving for p, Initial residual = 0.639059, Final residual = 9.69961e-05, No Iterations 403
linear solve p 4171018
time step continuity errors : sum local = 7.94601e-08, global = -4.64005e-21, cumulative = 2.47799e-20
ExecutionTime = 56.5 s  ClockTime = 57 s

Time = 0.005

Courant Number mean: 0.105259 max: 0.889662
DILUPBiCGStab:  Solving for Ux, Initial residual = 0.0274666, Final residual = 0.000432737, No Iterations 5
DILUPBiCGStab:  Solving for Uy, Initial residual = 0.081214, Final residual = 0.00141311, No Iterations 5
DILUPBiCGStab:  Solving for Uz, Initial residual = 0.484215, Final residual = 0.0062356, No Iterations 5
linear solve U 684152
nonePCG:  Solving for p, Initial residual = 0.699287, Final residual = 9.95861e-05, No Iterations 395
linear solve p 4122623
time step continuity errors : sum local = 7.00508e-08, global = 4.06737e-21, cumulative = 2.88472e-20
nonePCG:  Solving for p, Initial residual = 0.648226, Final residual = 9.87664e-05, No Iterations 387
linear solve p 4041021
time step continuity errors : sum local = 6.48452e-08, global = -1.15091e-20, cumulative = 1.73381e-20
ExecutionTime = 65.71 s  ClockTime = 66 s

Time = 0.006

Courant Number mean: 0.113391 max: 0.895055
DILUPBiCGStab:  Solving for Ux, Initial residual = 0.0177921, Final residual = 0.000284109, No Iterations 5
DILUPBiCGStab:  Solving for Uy, Initial residual = 0.0672164, Final residual = 0.00104597, No Iterations 5
DILUPBiCGStab:  Solving for Uz, Initial residual = 0.346892, Final residual = 0.00452794, No Iterations 5
linear solve U 692592
nonePCG:  Solving for p, Initial residual = 0.581989, Final residual = 9.60388e-05, No Iterations 387
linear solve p 4068755
time step continuity errors : sum local = 5.85734e-08, global = -1.23654e-21, cumulative = 1.61016e-20
nonePCG:  Solving for p, Initial residual = 0.52332, Final residual = 9.70282e-05, No Iterations 384
linear solve p 3994952
time step continuity errors : sum local = 5.82166e-08, global = 7.83776e-21, cumulative = 2.39393e-20
ExecutionTime = 74.84 s  ClockTime = 75 s

Time = 0.007

Courant Number mean: 0.120594 max: 0.898295
DILUPBiCGStab:  Solving for Ux, Initial residual = 0.0152426, Final residual = 0.000219134, No Iterations 5
DILUPBiCGStab:  Solving for Uy, Initial residual = 0.0437744, Final residual = 0.000706506, No Iterations 5
DILUPBiCGStab:  Solving for Uz, Initial residual = 0.264214, Final residual = 0.00348841, No Iterations 5
linear solve U 690388
nonePCG:  Solving for p, Initial residual = 0.562281, Final residual = 9.91231e-05, No Iterations 725
linear solve p 7603096
time step continuity errors : sum local = 4.91585e-08, global = 1.89065e-20, cumulative = 4.28458e-20
nonePCG:  Solving for p, Initial residual = 0.504909, Final residual = 9.99645e-05, No Iterations 724
linear solve p 7547915
time step continuity errors : sum local = 4.93629e-08, global = -3.70791e-21, cumulative = 3.91379e-20
ExecutionTime = 91.03 s  ClockTime = 92 s

Time = 0.008

Courant Number mean: 0.126416 max: 0.902024
DILUPBiCGStab:  Solving for Ux, Initial residual = 0.0110599, Final residual = 0.00014948, No Iterations 5
DILUPBiCGStab:  Solving for Uy, Initial residual = 0.0374999, Final residual = 0.00054766, No Iterations 5
DILUPBiCGStab:  Solving for Uz, Initial residual = 0.197214, Final residual = 0.00262222, No Iterations 5
linear solve U 693314
nonePCG:  Solving for p, Initial residual = 0.459242, Final residual = 9.82249e-05, No Iterations 359
linear solve p 3726536
time step continuity errors : sum local = 4.78587e-08, global = -1.93796e-21, cumulative = 3.72e-20
nonePCG:  Solving for p, Initial residual = 0.40697, Final residual = 9.98075e-05, No Iterations 345
linear solve p 3621405
time step continuity errors : sum local = 4.81123e-08, global = -2.79569e-21, cumulative = 3.44043e-20
ExecutionTime = 99.45 s  ClockTime = 100 s

Time = 0.009

Courant Number mean: 0.131553 max: 0.903729
DILUPBiCGStab:  Solving for Ux, Initial residual = 0.00964989, Final residual = 0.000116434, No Iterations 5
DILUPBiCGStab:  Solving for Uy, Initial residual = 0.0273321, Final residual = 0.000335214, No Iterations 5
DILUPBiCGStab:  Solving for Uz, Initial residual = 0.147627, Final residual = 0.00216098, No Iterations 5
linear solve U 689725
nonePCG:  Solving for p, Initial residual = 0.428008, Final residual = 9.74248e-05, No Iterations 362
linear solve p 3785975
time step continuity errors : sum local = 4.60452e-08, global = -1.37131e-20, cumulative = 2.06912e-20
nonePCG:  Solving for p, Initial residual = 0.375851, Final residual = 9.6207e-05, No Iterations 341
linear solve p 3582075
time step continuity errors : sum local = 4.17892e-08, global = 1.38659e-20, cumulative = 3.45571e-20
ExecutionTime = 107.88 s  ClockTime = 109 s

Time = 0.01

Courant Number mean: 0.135966 max: 0.906069
DILUPBiCGStab:  Solving for Ux, Initial residual = 0.00755093, Final residual = 8.36518e-05, No Iterations 5
DILUPBiCGStab:  Solving for Uy, Initial residual = 0.0238494, Final residual = 0.000280381, No Iterations 5
DILUPBiCGStab:  Solving for Uz, Initial residual = 0.116256, Final residual = 0.00174167, No Iterations 5
linear solve U 691697
nonePCG:  Solving for p, Initial residual = 0.351151, Final residual = 9.91689e-05, No Iterations 715
linear solve p 7452453
time step continuity errors : sum local = 4.06622e-08, global = -7.72832e-21, cumulative = 2.68288e-20
nonePCG:  Solving for p, Initial residual = 0.307703, Final residual = 9.95558e-05, No Iterations 713
linear solve p 7463459
time step continuity errors : sum local = 4.06625e-08, global = -5.66881e-21, cumulative = 2.116e-20
ExecutionTime = 123.84 s  ClockTime = 125 s

End

