/*---------------------------------------------------------------------------*\
  =========                 |
  \\      /  F ield         | OpenFOAM: The Open Source CFD Toolbox
   \\    /   O peration     | Website:  https://openfoam.org
    \\  /    A nd           | Version:  8
     \\/     M anipulation  |
\*---------------------------------------------------------------------------*/
Build  : 8-ef60d22ea792
Exec   : icoFoam
Date   : Jul 29 2021
Time   : 03:19:16
Host   : "uc2n489.localdomain"
PID    : 3420202
I/O    : uncollated
Case   : /pfs/data5/home/kit/scc/nq7776/code/OBR/lidDrivenCavity3D/Variation_mesh/70/Variation_matrix_solver/BiCGStab_NoPrecond_CUDA/base
nProcs : 1
sigFpe : Enabling floating point exception trapping (FOAM_SIGFPE).
fileModificationChecking : Monitoring run-time modified files using timeStampMaster (fileModificationSkew 10)
allowSystemOperations : Allowing user-supplied system call operations

// * * * * * * * * * * * * * * * * * * * * * * * * * * * * * * * * * * * * * //
Create time

Create mesh for time = 0

Reading transportProperties

Reading field p

Reading field U

Reading/calculating face flux field phi


Starting time loop

Time = 0.001

Courant Number mean: 0 max: 0
DILUPBiCGStab:  Solving for Ux, Initial residual = 1, Final residual = 0.00143011, No Iterations 5
DILUPBiCGStab:  Solving for Uy:  solution singularity
DILUPBiCGStab:  Solving for Uz:  solution singularity
linear solve U 165981
[OGL LOG] init_host_sparsity_pattern : 101 ms
[OGL LOG] matrix not stored update host matrix
[OGL LOG] update_host_mtx : 50 ms
[OGL LOG] matrix is not yet sorted, compute sorting idxs
[OGL LOG] compute_sort : 2946 ms
[OGL LOG] matrix is not yet sorted, sorting host matrix
[OGL LOG] sort_host_mtx_sparsity_pattern : 70 ms
[OGL LOG] sort_host_mtx : 40 ms
[OGL LOG] init_preconditioner : 0 ms
[OGL LOG] solve : 491 ms
nonecudaGKOBiCGStab:  Solving for p, Initial residual = 1, Final residual = 3.86651e-05, No Iterations 439
linear solve p 4460783
time step continuity errors : sum local = 0.000798978, global = -2.59666e-19, cumulative = -2.59666e-19
[OGL LOG] init_host_sparsity_pattern : 96 ms
[OGL LOG] matrix not stored update host matrix
[OGL LOG] update_host_mtx : 50 ms
[OGL LOG] matrix is not yet sorted, sorting host matrix
[OGL LOG] sort_host_mtx_sparsity_pattern : 70 ms
[OGL LOG] sort_host_mtx : 37 ms
[OGL LOG] init_preconditioner : 0 ms
[OGL LOG] solve : 455 ms
nonecudaGKOBiCGStab:  Solving for p, Initial residual = 0.884004, Final residual = 9.91725e-05, No Iterations 408
linear solve p 730266
time step continuity errors : sum local = 9.21541e-05, global = -4.66791e-21, cumulative = -2.64334e-19
ExecutionTime = 6.79 s  ClockTime = 6 s

Time = 0.002

Courant Number mean: 0.0394593 max: 0.520888
DILUPBiCGStab:  Solving for Ux, Initial residual = 0.151852, Final residual = 0.000460646, No Iterations 5
DILUPBiCGStab:  Solving for Uy, Initial residual = 0.363535, Final residual = 0.000939421, No Iterations 5
DILUPBiCGStab:  Solving for Uz, Initial residual = 0.919357, Final residual = 0.00464554, No Iterations 5
linear solve U 326667
[OGL LOG] init_host_sparsity_pattern : 95 ms
[OGL LOG] matrix not stored update host matrix
[OGL LOG] update_host_mtx : 43 ms
[OGL LOG] matrix is not yet sorted, sorting host matrix
[OGL LOG] sort_host_mtx_sparsity_pattern : 68 ms
[OGL LOG] sort_host_mtx : 37 ms
[OGL LOG] init_preconditioner : 0 ms
[OGL LOG] solve : 437 ms
nonecudaGKOBiCGStab:  Solving for p, Initial residual = 0.939777, Final residual = 9.54023e-05, No Iterations 391
linear solve p 705081
time step continuity errors : sum local = 0.000721462, global = -1.26612e-19, cumulative = -3.90945e-19
[OGL LOG] init_host_sparsity_pattern : 95 ms
[OGL LOG] matrix not stored update host matrix
[OGL LOG] update_host_mtx : 44 ms
[OGL LOG] matrix is not yet sorted, sorting host matrix
[OGL LOG] sort_host_mtx_sparsity_pattern : 63 ms
[OGL LOG] sort_host_mtx : 37 ms
[OGL LOG] init_preconditioner : 0 ms
[OGL LOG] solve : 444 ms
nonecudaGKOBiCGStab:  Solving for p, Initial residual = 0.789489, Final residual = 9.88747e-05, No Iterations 395
linear solve p 704937
time step continuity errors : sum local = 9.12492e-05, global = 8.75292e-21, cumulative = -3.82192e-19
ExecutionTime = 8.73 s  ClockTime = 8 s

Time = 0.003

Courant Number mean: 0.0609513 max: 0.650416
DILUPBiCGStab:  Solving for Ux, Initial residual = 0.0540827, Final residual = 0.00010446, No Iterations 5
DILUPBiCGStab:  Solving for Uy, Initial residual = 0.143865, Final residual = 0.000332181, No Iterations 5
DILUPBiCGStab:  Solving for Uz, Initial residual = 0.812592, Final residual = 0.00339726, No Iterations 5
linear solve U 327985
[OGL LOG] init_host_sparsity_pattern : 95 ms
[OGL LOG] matrix not stored update host matrix
[OGL LOG] update_host_mtx : 43 ms
[OGL LOG] matrix is not yet sorted, sorting host matrix
[OGL LOG] sort_host_mtx_sparsity_pattern : 66 ms
[OGL LOG] sort_host_mtx : 37 ms
[OGL LOG] init_preconditioner : 0 ms
[OGL LOG] solve : 458 ms
nonecudaGKOBiCGStab:  Solving for p, Initial residual = 0.946834, Final residual = 9.92304e-05, No Iterations 407
linear solve p 723939
time step continuity errors : sum local = 0.000600742, global = -5.79789e-19, cumulative = -9.61981e-19
[OGL LOG] init_host_sparsity_pattern : 98 ms
[OGL LOG] matrix not stored update host matrix
[OGL LOG] update_host_mtx : 44 ms
[OGL LOG] matrix is not yet sorted, sorting host matrix
[OGL LOG] sort_host_mtx_sparsity_pattern : 63 ms
[OGL LOG] sort_host_mtx : 37 ms
[OGL LOG] init_preconditioner : 0 ms
[OGL LOG] solve : 439 ms
nonecudaGKOBiCGStab:  Solving for p, Initial residual = 0.799241, Final residual = 9.63839e-05, No Iterations 394
linear solve p 703441
time step continuity errors : sum local = 9.39114e-07, global = 2.87057e-21, cumulative = -9.59111e-19
ExecutionTime = 10.69 s  ClockTime = 10 s

Time = 0.004

Courant Number mean: 0.0711209 max: 0.668008
DILUPBiCGStab:  Solving for Ux, Initial residual = 0.0365793, Final residual = 7.97358e-05, No Iterations 5
DILUPBiCGStab:  Solving for Uy, Initial residual = 0.108082, Final residual = 0.000252705, No Iterations 5
DILUPBiCGStab:  Solving for Uz, Initial residual = 0.812693, Final residual = 0.00280539, No Iterations 5
linear solve U 327281
[OGL LOG] init_host_sparsity_pattern : 98 ms
[OGL LOG] matrix not stored update host matrix
[OGL LOG] update_host_mtx : 47 ms
[OGL LOG] matrix is not yet sorted, sorting host matrix
[OGL LOG] sort_host_mtx_sparsity_pattern : 66 ms
[OGL LOG] sort_host_mtx : 37 ms
[OGL LOG] init_preconditioner : 0 ms
[OGL LOG] solve : 436 ms
nonecudaGKOBiCGStab:  Solving for p, Initial residual = 0.928661, Final residual = 8.9856e-05, No Iterations 390
linear solve p 707307
time step continuity errors : sum local = 8.98601e-07, global = -1.1942e-20, cumulative = -9.71052e-19
[OGL LOG] init_host_sparsity_pattern : 95 ms
[OGL LOG] matrix not stored update host matrix
[OGL LOG] update_host_mtx : 44 ms
[OGL LOG] matrix is not yet sorted, sorting host matrix
[OGL LOG] sort_host_mtx_sparsity_pattern : 63 ms
[OGL LOG] sort_host_mtx : 37 ms
[OGL LOG] init_preconditioner : 0 ms
[OGL LOG] solve : 449 ms
nonecudaGKOBiCGStab:  Solving for p, Initial residual = 0.8085, Final residual = 8.25173e-05, No Iterations 401
linear solve p 710411
time step continuity errors : sum local = 0.00307346, global = -9.93682e-19, cumulative = -1.96473e-18
ExecutionTime = 12.62 s  ClockTime = 12 s

Time = 0.005

Courant Number mean: 0.0807061 max: 0.719977
DILUPBiCGStab:  Solving for Ux, Initial residual = 0.0258575, Final residual = 4.9198e-05, No Iterations 5
DILUPBiCGStab:  Solving for Uy, Initial residual = 0.084805, Final residual = 0.000353168, No Iterations 5
DILUPBiCGStab:  Solving for Uz, Initial residual = 0.716341, Final residual = 0.00348683, No Iterations 5
linear solve U 336620
[OGL LOG] init_host_sparsity_pattern : 95 ms
[OGL LOG] matrix not stored update host matrix
[OGL LOG] update_host_mtx : 43 ms
[OGL LOG] matrix is not yet sorted, sorting host matrix
[OGL LOG] sort_host_mtx_sparsity_pattern : 65 ms
[OGL LOG] sort_host_mtx : 37 ms
[OGL LOG] init_preconditioner : 0 ms
[OGL LOG] solve : 431 ms
nonecudaGKOBiCGStab:  Solving for p, Initial residual = 0.975337, Final residual = 8.29142e-05, No Iterations 383
linear solve p 694378
time step continuity errors : sum local = 0.00524944, global = -1.21061e-17, cumulative = -1.40709e-17
[OGL LOG] init_host_sparsity_pattern : 95 ms
[OGL LOG] matrix not stored update host matrix
[OGL LOG] update_host_mtx : 44 ms
[OGL LOG] matrix is not yet sorted, sorting host matrix
[OGL LOG] sort_host_mtx_sparsity_pattern : 63 ms
[OGL LOG] sort_host_mtx : 37 ms
[OGL LOG] init_preconditioner : 0 ms
[OGL LOG] solve : 424 ms
nonecudaGKOBiCGStab:  Solving for p, Initial residual = 0.776225, Final residual = 9.92085e-05, No Iterations 377
linear solve p 684971
time step continuity errors : sum local = 0.000403857, global = 6.36294e-20, cumulative = -1.40072e-17
ExecutionTime = 14.54 s  ClockTime = 14 s

Time = 0.006

Courant Number mean: 0.0916911 max: 0.80171
DILUPBiCGStab:  Solving for Ux, Initial residual = 0.0423878, Final residual = 0.00011626, No Iterations 5
DILUPBiCGStab:  Solving for Uy, Initial residual = 0.146032, Final residual = 0.000657303, No Iterations 5
DILUPBiCGStab:  Solving for Uz, Initial residual = 0.820561, Final residual = 0.00371534, No Iterations 5
linear solve U 326964
[OGL LOG] init_host_sparsity_pattern : 95 ms
[OGL LOG] matrix not stored update host matrix
[OGL LOG] update_host_mtx : 43 ms
[OGL LOG] matrix is not yet sorted, sorting host matrix
[OGL LOG] sort_host_mtx_sparsity_pattern : 63 ms
[OGL LOG] sort_host_mtx : 37 ms
[OGL LOG] init_preconditioner : 0 ms
[OGL LOG] solve : 425 ms
nonecudaGKOBiCGStab:  Solving for p, Initial residual = 0.973662, Final residual = 9.96479e-05, No Iterations 379
linear solve p 685808
time step continuity errors : sum local = 0.0156248, global = -3.26561e-17, cumulative = -4.66633e-17
[OGL LOG] init_host_sparsity_pattern : 95 ms
[OGL LOG] matrix not stored update host matrix
[OGL LOG] update_host_mtx : 44 ms
[OGL LOG] matrix is not yet sorted, sorting host matrix
[OGL LOG] sort_host_mtx_sparsity_pattern : 63 ms
[OGL LOG] sort_host_mtx : 39 ms
[OGL LOG] init_preconditioner : 0 ms
[OGL LOG] solve : 448 ms
nonecudaGKOBiCGStab:  Solving for p, Initial residual = 0.766796, Final residual = 3.87187e-05, No Iterations 400
linear solve p 714103
time step continuity errors : sum local = 0.0608564, global = 4.23809e-17, cumulative = -4.28235e-18
ExecutionTime = 16.45 s  ClockTime = 16 s

Time = 0.007

Courant Number mean: 0.1329 max: 3.28728
DILUPBiCGStab:  Solving for Ux, Initial residual = 0.0639168, Final residual = 0.000200744, No Iterations 5
DILUPBiCGStab:  Solving for Uy, Initial residual = 0.228397, Final residual = 0.00171772, No Iterations 5
DILUPBiCGStab:  Solving for Uz, Initial residual = 0.506453, Final residual = 0.00292941, No Iterations 5
linear solve U 326729
[OGL LOG] init_host_sparsity_pattern : 98 ms
[OGL LOG] matrix not stored update host matrix
[OGL LOG] update_host_mtx : 44 ms
[OGL LOG] matrix is not yet sorted, sorting host matrix
[OGL LOG] sort_host_mtx_sparsity_pattern : 63 ms
[OGL LOG] sort_host_mtx : 37 ms
[OGL LOG] init_preconditioner : 0 ms
[OGL LOG] solve : 391 ms
nonecudaGKOBiCGStab:  Solving for p, Initial residual = 0.959094, Final residual = 9.52914e-05, No Iterations 358
linear solve p 655375
time step continuity errors : sum local = 0.0305787, global = 1.15126e-18, cumulative = -3.1311e-18
[OGL LOG] init_host_sparsity_pattern : 95 ms
[OGL LOG] matrix not stored update host matrix
[OGL LOG] update_host_mtx : 47 ms
[OGL LOG] matrix is not yet sorted, sorting host matrix
[OGL LOG] sort_host_mtx_sparsity_pattern : 66 ms
[OGL LOG] sort_host_mtx : 37 ms
[OGL LOG] init_preconditioner : 0 ms
[OGL LOG] solve : 174 ms
nonecudaGKOBiCGStab:  Solving for p, Initial residual = 0.771453, Final residual = 9.00474e-05, No Iterations 158
linear solve p 442417
time step continuity errors : sum local = 3.25836e-05, global = 8.90385e-20, cumulative = -3.04206e-18
ExecutionTime = 18.09 s  ClockTime = 18 s

Time = 0.008

Courant Number mean: 0.241771 max: 2.62636
DILUPBiCGStab:  Solving for Ux, Initial residual = 0.306977, Final residual = 0.000822774, No Iterations 5
DILUPBiCGStab:  Solving for Uy, Initial residual = 0.624782, Final residual = 0.00229602, No Iterations 5
DILUPBiCGStab:  Solving for Uz, Initial residual = 0.755735, Final residual = 0.00339651, No Iterations 5
linear solve U 327190
[OGL LOG] init_host_sparsity_pattern : 95 ms
[OGL LOG] matrix not stored update host matrix
[OGL LOG] update_host_mtx : 44 ms
[OGL LOG] matrix is not yet sorted, sorting host matrix
[OGL LOG] sort_host_mtx_sparsity_pattern : 63 ms
[OGL LOG] sort_host_mtx : 37 ms
[OGL LOG] init_preconditioner : 0 ms
[OGL LOG] solve : 425 ms
nonecudaGKOBiCGStab:  Solving for p, Initial residual = 0.97428, Final residual = 9.57691e-05, No Iterations 390
linear solve p 686033
time step continuity errors : sum local = 0.0290014, global = -4.1402e-17, cumulative = -4.44441e-17
[OGL LOG] init_host_sparsity_pattern : 95 ms
[OGL LOG] matrix not stored update host matrix
[OGL LOG] update_host_mtx : 44 ms
[OGL LOG] matrix is not yet sorted, sorting host matrix
[OGL LOG] sort_host_mtx_sparsity_pattern : 64 ms
[OGL LOG] sort_host_mtx : 38 ms
[OGL LOG] init_preconditioner : 0 ms
[OGL LOG] solve : 426 ms
nonecudaGKOBiCGStab:  Solving for p, Initial residual = 0.792516, Final residual = 9.37724e-05, No Iterations 390
linear solve p 689335
time step continuity errors : sum local = 35.1898, global = -1.12353e-14, cumulative = -1.12797e-14
ExecutionTime = 19.99 s  ClockTime = 20 s

Time = 0.009

Courant Number mean: 17.8009 max: 1836.29
DILUPBiCGStab:  Solving for Ux, Initial residual = 0.913149, Final residual = 27260.1, No Iterations 5
DILUPBiCGStab:  Solving for Uy, Initial residual = 0.964318, Final residual = 97.4106, No Iterations 5
DILUPBiCGStab:  Solving for Uz, Initial residual = 0.997128, Final residual = 253.297, No Iterations 5
linear solve U 328797
[OGL LOG] init_host_sparsity_pattern : 95 ms
[OGL LOG] matrix not stored update host matrix
[OGL LOG] update_host_mtx : 44 ms
[OGL LOG] matrix is not yet sorted, sorting host matrix
[OGL LOG] sort_host_mtx_sparsity_pattern : 65 ms
[OGL LOG] sort_host_mtx : 37 ms
[OGL LOG] init_preconditioner : 0 ms
[OGL LOG] solve : 293 ms
nonecudaGKOBiCGStab:  Solving for p, Initial residual = 1, Final residual = 9.3231e-05, No Iterations 266
linear solve p 555570
time step continuity errors : sum local = 64.0107, global = 6.98891e-13, cumulative = 6.87611e-13
[OGL LOG] init_host_sparsity_pattern : 95 ms
[OGL LOG] matrix not stored update host matrix
[OGL LOG] update_host_mtx : 44 ms
[OGL LOG] matrix is not yet sorted, sorting host matrix
[OGL LOG] sort_host_mtx_sparsity_pattern : 63 ms
[OGL LOG] sort_host_mtx : 37 ms
[OGL LOG] init_preconditioner : 0 ms
[OGL LOG] solve : 280 ms
nonecudaGKOBiCGStab:  Solving for p, Initial residual = 0.176506, Final residual = 9.72852e-05, No Iterations 257
linear solve p 541749
time step continuity errors : sum local = 109.162, global = 4.33542e-12, cumulative = 5.02303e-12
ExecutionTime = 21.6 s  ClockTime = 21 s

Time = 0.01

Courant Number mean: 1.09625e+06 max: 3.50838e+09
DILUPBiCGStab:  Solving for Ux, Initial residual = 0.999999, Final residual = 10.3905, No Iterations 5
DILUPBiCGStab:  Solving for Uy, Initial residual = 0.999999, Final residual = 12.9716, No Iterations 5
DILUPBiCGStab:  Solving for Uz, Initial residual = 1, Final residual = 23.2293, No Iterations 5
linear solve U 328873
[OGL LOG] init_host_sparsity_pattern : 95 ms
[OGL LOG] matrix not stored update host matrix
[OGL LOG] update_host_mtx : 44 ms
[OGL LOG] matrix is not yet sorted, sorting host matrix
[OGL LOG] sort_host_mtx_sparsity_pattern : 63 ms
[OGL LOG] sort_host_mtx : 37 ms
[OGL LOG] init_preconditioner : 0 ms
[OGL LOG] solve : 3236 ms
nonecudaGKOBiCGStab:  Solving for p, Initial residual = 1, Final residual = 8.82914, No Iterations 3000
linear solve p 3498126
time step continuity errors : sum local = 9.68255e+15, global = -9.73055, cumulative = -9.73055
[OGL LOG] init_host_sparsity_pattern : 98 ms
[OGL LOG] matrix not stored update host matrix
[OGL LOG] update_host_mtx : 43 ms
[OGL LOG] matrix is not yet sorted, sorting host matrix
[OGL LOG] sort_host_mtx_sparsity_pattern : 63 ms
[OGL LOG] sort_host_mtx : 37 ms
[OGL LOG] init_preconditioner : 0 ms
[OGL LOG] solve : 3232 ms
nonecudaGKOBiCGStab:  Solving for p, Initial residual = 1, Final residual = 5.13069, No Iterations 3000
linear solve p 3498663
time step continuity errors : sum local = 5.82519e+23, global = -5.60527e+07, cumulative = -5.60527e+07
ExecutionTime = 29.12 s  ClockTime = 29 s

End

