/*---------------------------------------------------------------------------*\
  =========                 |
  \\      /  F ield         | OpenFOAM: The Open Source CFD Toolbox
   \\    /   O peration     | Website:  https://openfoam.org
    \\  /    A nd           | Version:  8
     \\/     M anipulation  |
\*---------------------------------------------------------------------------*/
Build  : 8-ef60d22ea792
Exec   : icoFoam
Date   : Jul 29 2021
Time   : 00:03:28
Host   : "uc2n414.localdomain"
PID    : 2837974
I/O    : uncollated
Case   : /pfs/data5/home/kit/scc/nq7776/code/OBR/lidDrivenCavity3D/Variation_mesh/75/Variation_matrix_solver/BiCGStab_BJ_OMP/base
nProcs : 1
sigFpe : Enabling floating point exception trapping (FOAM_SIGFPE).
fileModificationChecking : Monitoring run-time modified files using timeStampMaster (fileModificationSkew 10)
allowSystemOperations : Allowing user-supplied system call operations

// * * * * * * * * * * * * * * * * * * * * * * * * * * * * * * * * * * * * * //
Create time

Create mesh for time = 0

Reading transportProperties

Reading field p

Reading field U

Reading/calculating face flux field phi


Starting time loop

Time = 0.001

Courant Number mean: 0 max: 0
DILUPBiCGStab:  Solving for Ux, Initial residual = 1, Final residual = 0.00209367, No Iterations 5
DILUPBiCGStab:  Solving for Uy:  solution singularity
DILUPBiCGStab:  Solving for Uz:  solution singularity
linear solve U 194998
[OGL LOG] init_host_sparsity_pattern : 122 ms
[OGL LOG] matrix not stored update host matrix
[OGL LOG] update_host_mtx : 66 ms
[OGL LOG] matrix is not yet sorted, compute sorting idxs
[OGL LOG] compute_sort : 3633 ms
[OGL LOG] matrix is not yet sorted, sorting host matrix
[OGL LOG] sort_host_mtx_sparsity_pattern : 86 ms
[OGL LOG] sort_host_mtx : 51 ms
[OGL LOG] init_preconditioner : 113 ms
[OGL LOG] solve : 26707 ms
BJompGKOBiCGStab:  Solving for p, Initial residual = 1, Final residual = 1.26811e-05, No Iterations 373
linear solve p 30865430
time step continuity errors : sum local = 5.09045e-07, global = -1.46535e-21, cumulative = -1.46535e-21
[OGL LOG] init_host_sparsity_pattern : 115 ms
[OGL LOG] matrix not stored update host matrix
[OGL LOG] update_host_mtx : 62 ms
[OGL LOG] matrix is not yet sorted, sorting host matrix
[OGL LOG] sort_host_mtx_sparsity_pattern : 86 ms
[OGL LOG] sort_host_mtx : 42 ms
[OGL LOG] init_preconditioner : 0 ms
[OGL LOG] solve : 29956 ms
BJompGKOBiCGStab:  Solving for p, Initial residual = 0.736828, Final residual = 5.2468e-05, No Iterations 419
linear solve p 30314071
time step continuity errors : sum local = 3.7493e-06, global = 1.78137e-20, cumulative = 1.63483e-20
ExecutionTime = 62.88 s  ClockTime = 63 s

Time = 0.002

Courant Number mean: 0.0423156 max: 0.566019
DILUPBiCGStab:  Solving for Ux, Initial residual = 0.147996, Final residual = 0.000714252, No Iterations 5
DILUPBiCGStab:  Solving for Uy, Initial residual = 0.376826, Final residual = 0.00157913, No Iterations 5
DILUPBiCGStab:  Solving for Uz, Initial residual = 0.923715, Final residual = 0.00530112, No Iterations 5
linear solve U 376921
[OGL LOG] init_host_sparsity_pattern : 111 ms
[OGL LOG] matrix not stored update host matrix
[OGL LOG] update_host_mtx : 54 ms
[OGL LOG] matrix is not yet sorted, sorting host matrix
[OGL LOG] sort_host_mtx_sparsity_pattern : 86 ms
[OGL LOG] sort_host_mtx : 43 ms
[OGL LOG] init_preconditioner : 0 ms
[OGL LOG] solve : 27551 ms
BJompGKOBiCGStab:  Solving for p, Initial residual = 0.705302, Final residual = 9.44917e-05, No Iterations 385
linear solve p 27897949
time step continuity errors : sum local = 1.45096e-07, global = 1.07675e-20, cumulative = 2.71158e-20
[OGL LOG] init_host_sparsity_pattern : 111 ms
[OGL LOG] matrix not stored update host matrix
[OGL LOG] update_host_mtx : 54 ms
[OGL LOG] matrix is not yet sorted, sorting host matrix
[OGL LOG] sort_host_mtx_sparsity_pattern : 86 ms
[OGL LOG] sort_host_mtx : 42 ms
[OGL LOG] init_preconditioner : 0 ms
[OGL LOG] solve : 24327 ms
BJompGKOBiCGStab:  Solving for p, Initial residual = 0.636389, Final residual = 8.5537e-05, No Iterations 340
linear solve p 24674870
time step continuity errors : sum local = 4.56285e-06, global = -2.7699e-20, cumulative = -5.83156e-22
ExecutionTime = 115.86 s  ClockTime = 117 s

Time = 0.003

Courant Number mean: 0.0637073 max: 0.668477
DILUPBiCGStab:  Solving for Ux, Initial residual = 0.0530741, Final residual = 0.000202972, No Iterations 5
DILUPBiCGStab:  Solving for Uy, Initial residual = 0.139832, Final residual = 0.00051644, No Iterations 5
DILUPBiCGStab:  Solving for Uz, Initial residual = 0.672407, Final residual = 0.00364189, No Iterations 5
linear solve U 377151
[OGL LOG] init_host_sparsity_pattern : 111 ms
[OGL LOG] matrix not stored update host matrix
[OGL LOG] update_host_mtx : 54 ms
[OGL LOG] matrix is not yet sorted, sorting host matrix
[OGL LOG] sort_host_mtx_sparsity_pattern : 86 ms
[OGL LOG] sort_host_mtx : 42 ms
[OGL LOG] init_preconditioner : 0 ms
[OGL LOG] solve : 26401 ms
BJompGKOBiCGStab:  Solving for p, Initial residual = 0.666105, Final residual = 9.69877e-05, No Iterations 369
linear solve p 26747104
time step continuity errors : sum local = 1.05388e-07, global = 9.11882e-21, cumulative = 8.53566e-21
[OGL LOG] init_host_sparsity_pattern : 111 ms
[OGL LOG] matrix not stored update host matrix
[OGL LOG] update_host_mtx : 54 ms
[OGL LOG] matrix is not yet sorted, sorting host matrix
[OGL LOG] sort_host_mtx_sparsity_pattern : 86 ms
[OGL LOG] sort_host_mtx : 42 ms
[OGL LOG] init_preconditioner : 0 ms
[OGL LOG] solve : 23174 ms
BJompGKOBiCGStab:  Solving for p, Initial residual = 0.620971, Final residual = 9.68524e-05, No Iterations 324
linear solve p 23521151
time step continuity errors : sum local = 1.24178e-07, global = 3.34981e-21, cumulative = 1.18855e-20
ExecutionTime = 166.56 s  ClockTime = 167 s

Time = 0.004

Courant Number mean: 0.074705 max: 0.679149
DILUPBiCGStab:  Solving for Ux, Initial residual = 0.0304348, Final residual = 0.000113885, No Iterations 5
DILUPBiCGStab:  Solving for Uy, Initial residual = 0.0917868, Final residual = 0.000316017, No Iterations 5
DILUPBiCGStab:  Solving for Uz, Initial residual = 0.449114, Final residual = 0.00228769, No Iterations 5
linear solve U 382377
[OGL LOG] init_host_sparsity_pattern : 111 ms
[OGL LOG] matrix not stored update host matrix
[OGL LOG] update_host_mtx : 57 ms
[OGL LOG] matrix is not yet sorted, sorting host matrix
[OGL LOG] sort_host_mtx_sparsity_pattern : 86 ms
[OGL LOG] sort_host_mtx : 42 ms
[OGL LOG] init_preconditioner : 0 ms
[OGL LOG] solve : 23412 ms
BJompGKOBiCGStab:  Solving for p, Initial residual = 0.469771, Final residual = 6.35594e-05, No Iterations 327
linear solve p 23761931
time step continuity errors : sum local = 7.11735e-08, global = 1.42691e-20, cumulative = 2.61546e-20
[OGL LOG] init_host_sparsity_pattern : 111 ms
[OGL LOG] matrix not stored update host matrix
[OGL LOG] update_host_mtx : 54 ms
[OGL LOG] matrix is not yet sorted, sorting host matrix
[OGL LOG] sort_host_mtx_sparsity_pattern : 82 ms
[OGL LOG] sort_host_mtx : 43 ms
[OGL LOG] init_preconditioner : 0 ms
[OGL LOG] solve : 25452 ms
BJompGKOBiCGStab:  Solving for p, Initial residual = 0.404245, Final residual = 8.03923e-05, No Iterations 356
linear solve p 25795798
time step continuity errors : sum local = 1.74086e-07, global = -2.03727e-20, cumulative = 5.78185e-21
ExecutionTime = 216.55 s  ClockTime = 218 s

Time = 0.005

Courant Number mean: 0.0834356 max: 0.689395
DILUPBiCGStab:  Solving for Ux, Initial residual = 0.0215556, Final residual = 6.52883e-05, No Iterations 5
DILUPBiCGStab:  Solving for Uy, Initial residual = 0.0506666, Final residual = 0.000115105, No Iterations 5
DILUPBiCGStab:  Solving for Uz, Initial residual = 0.241196, Final residual = 0.00134446, No Iterations 5
linear solve U 377219
[OGL LOG] init_host_sparsity_pattern : 111 ms
[OGL LOG] matrix not stored update host matrix
[OGL LOG] update_host_mtx : 54 ms
[OGL LOG] matrix is not yet sorted, sorting host matrix
[OGL LOG] sort_host_mtx_sparsity_pattern : 88 ms
[OGL LOG] sort_host_mtx : 43 ms
[OGL LOG] init_preconditioner : 0 ms
[OGL LOG] solve : 25459 ms
BJompGKOBiCGStab:  Solving for p, Initial residual = 0.386503, Final residual = 9.68363e-05, No Iterations 356
linear solve p 25809154
time step continuity errors : sum local = 4.84002e-08, global = -7.78341e-21, cumulative = -2.00156e-21
[OGL LOG] init_host_sparsity_pattern : 111 ms
[OGL LOG] matrix not stored update host matrix
[OGL LOG] update_host_mtx : 54 ms
[OGL LOG] matrix is not yet sorted, sorting host matrix
[OGL LOG] sort_host_mtx_sparsity_pattern : 87 ms
[OGL LOG] sort_host_mtx : 44 ms
[OGL LOG] init_preconditioner : 0 ms
[OGL LOG] solve : 22274 ms
BJompGKOBiCGStab:  Solving for p, Initial residual = 0.336273, Final residual = 8.05803e-05, No Iterations 312
linear solve p 22623199
time step continuity errors : sum local = 5.14688e-08, global = -6.453e-21, cumulative = -8.45455e-21
ExecutionTime = 265.41 s  ClockTime = 267 s

Time = 0.006

Courant Number mean: 0.0901788 max: 0.695222
DILUPBiCGStab:  Solving for Ux, Initial residual = 0.0149844, Final residual = 3.98656e-05, No Iterations 5
DILUPBiCGStab:  Solving for Uy, Initial residual = 0.0386829, Final residual = 8.60727e-05, No Iterations 5
DILUPBiCGStab:  Solving for Uz, Initial residual = 0.158787, Final residual = 0.000759153, No Iterations 5
linear solve U 380880
[OGL LOG] init_host_sparsity_pattern : 111 ms
[OGL LOG] matrix not stored update host matrix
[OGL LOG] update_host_mtx : 61 ms
[OGL LOG] matrix is not yet sorted, sorting host matrix
[OGL LOG] sort_host_mtx_sparsity_pattern : 86 ms
[OGL LOG] sort_host_mtx : 42 ms
[OGL LOG] init_preconditioner : 0 ms
[OGL LOG] solve : 24563 ms
BJompGKOBiCGStab:  Solving for p, Initial residual = 0.250377, Final residual = 9.33302e-05, No Iterations 343
linear solve p 24916611
time step continuity errors : sum local = 4.86092e-08, global = -9.66754e-21, cumulative = -1.81221e-20
[OGL LOG] init_host_sparsity_pattern : 119 ms
[OGL LOG] matrix not stored update host matrix
[OGL LOG] update_host_mtx : 54 ms
[OGL LOG] matrix is not yet sorted, sorting host matrix
[OGL LOG] sort_host_mtx_sparsity_pattern : 82 ms
[OGL LOG] sort_host_mtx : 42 ms
[OGL LOG] init_preconditioner : 0 ms
[OGL LOG] solve : 22311 ms
BJompGKOBiCGStab:  Solving for p, Initial residual = 0.21122, Final residual = 7.02859e-05, No Iterations 312
linear solve p 22661133
time step continuity errors : sum local = 1.99516e-07, global = 1.22725e-20, cumulative = -5.84961e-21
ExecutionTime = 313.41 s  ClockTime = 315 s

Time = 0.007

Courant Number mean: 0.0957338 max: 0.698976
DILUPBiCGStab:  Solving for Ux, Initial residual = 0.0119631, Final residual = 2.59835e-05, No Iterations 5
DILUPBiCGStab:  Solving for Uy, Initial residual = 0.0287723, Final residual = 5.05035e-05, No Iterations 5
DILUPBiCGStab:  Solving for Uz, Initial residual = 0.101396, Final residual = 0.000453863, No Iterations 5
linear solve U 377872
[OGL LOG] init_host_sparsity_pattern : 111 ms
[OGL LOG] matrix not stored update host matrix
[OGL LOG] update_host_mtx : 54 ms
[OGL LOG] matrix is not yet sorted, sorting host matrix
[OGL LOG] sort_host_mtx_sparsity_pattern : 86 ms
[OGL LOG] sort_host_mtx : 43 ms
[OGL LOG] init_preconditioner : 0 ms
[OGL LOG] solve : 24863 ms
BJompGKOBiCGStab:  Solving for p, Initial residual = 0.189076, Final residual = 3.70592e-05, No Iterations 348
linear solve p 25209492
time step continuity errors : sum local = 1.65089e-08, global = 8.03025e-21, cumulative = 2.18064e-21
[OGL LOG] init_host_sparsity_pattern : 111 ms
[OGL LOG] matrix not stored update host matrix
[OGL LOG] update_host_mtx : 54 ms
[OGL LOG] matrix is not yet sorted, sorting host matrix
[OGL LOG] sort_host_mtx_sparsity_pattern : 86 ms
[OGL LOG] sort_host_mtx : 47 ms
[OGL LOG] init_preconditioner : 0 ms
[OGL LOG] solve : 23435 ms
BJompGKOBiCGStab:  Solving for p, Initial residual = 0.160115, Final residual = 7.9157e-05, No Iterations 328
linear solve p 23786329
time step continuity errors : sum local = 3.58383e-08, global = -1.27839e-20, cumulative = -1.06033e-20
ExecutionTime = 362.84 s  ClockTime = 365 s

Time = 0.008

Courant Number mean: 0.100407 max: 0.702079
DILUPBiCGStab:  Solving for Ux, Initial residual = 0.00958429, Final residual = 1.81e-05, No Iterations 5
DILUPBiCGStab:  Solving for Uy, Initial residual = 0.0233703, Final residual = 3.64899e-05, No Iterations 5
DILUPBiCGStab:  Solving for Uz, Initial residual = 0.0721549, Final residual = 0.000283542, No Iterations 5
linear solve U 382834
[OGL LOG] init_host_sparsity_pattern : 111 ms
[OGL LOG] matrix not stored update host matrix
[OGL LOG] update_host_mtx : 57 ms
[OGL LOG] matrix is not yet sorted, sorting host matrix
[OGL LOG] sort_host_mtx_sparsity_pattern : 86 ms
[OGL LOG] sort_host_mtx : 43 ms
[OGL LOG] init_preconditioner : 0 ms
[OGL LOG] solve : 21992 ms
BJompGKOBiCGStab:  Solving for p, Initial residual = 0.127663, Final residual = 9.79293e-05, No Iterations 307
linear solve p 22342817
time step continuity errors : sum local = 4.45897e-08, global = -1.28868e-20, cumulative = -2.34901e-20
[OGL LOG] init_host_sparsity_pattern : 111 ms
[OGL LOG] matrix not stored update host matrix
[OGL LOG] update_host_mtx : 54 ms
[OGL LOG] matrix is not yet sorted, sorting host matrix
[OGL LOG] sort_host_mtx_sparsity_pattern : 82 ms
[OGL LOG] sort_host_mtx : 42 ms
[OGL LOG] init_preconditioner : 0 ms
[OGL LOG] solve : 23266 ms
BJompGKOBiCGStab:  Solving for p, Initial residual = 0.106523, Final residual = 9.85189e-05, No Iterations 319
linear solve p 23619428
time step continuity errors : sum local = 4.38201e-08, global = -1.24645e-20, cumulative = -3.59545e-20
ExecutionTime = 409.34 s  ClockTime = 411 s

Time = 0.009

Courant Number mean: 0.104395 max: 0.704227
DILUPBiCGStab:  Solving for Ux, Initial residual = 0.00799179, Final residual = 1.11716e-05, No Iterations 5
DILUPBiCGStab:  Solving for Uy, Initial residual = 0.0192566, Final residual = 2.57493e-05, No Iterations 5
DILUPBiCGStab:  Solving for Uz, Initial residual = 0.0506126, Final residual = 0.000130727, No Iterations 5
linear solve U 408475
[OGL LOG] init_host_sparsity_pattern : 123 ms
[OGL LOG] matrix not stored update host matrix
[OGL LOG] update_host_mtx : 74 ms
[OGL LOG] matrix is not yet sorted, sorting host matrix
[OGL LOG] sort_host_mtx_sparsity_pattern : 102 ms
[OGL LOG] sort_host_mtx : 45 ms
[OGL LOG] init_preconditioner : 0 ms
[OGL LOG] solve : 20485 ms
BJompGKOBiCGStab:  Solving for p, Initial residual = 0.0947802, Final residual = 4.8638e-05, No Iterations 269
linear solve p 20912557
time step continuity errors : sum local = 3.77474e-08, global = 1.88099e-20, cumulative = -1.71446e-20
[OGL LOG] init_host_sparsity_pattern : 121 ms
[OGL LOG] matrix not stored update host matrix
[OGL LOG] update_host_mtx : 58 ms
[OGL LOG] matrix is not yet sorted, sorting host matrix
[OGL LOG] sort_host_mtx_sparsity_pattern : 93 ms
[OGL LOG] sort_host_mtx : 46 ms
[OGL LOG] init_preconditioner : 0 ms
[OGL LOG] solve : 10349 ms
BJompGKOBiCGStab:  Solving for p, Initial residual = 0.0795107, Final residual = 9.99897e-05, No Iterations 135
linear solve p 10725454
time step continuity errors : sum local = 5.94696e-08, global = 1.2522e-20, cumulative = -4.62263e-21
ExecutionTime = 441.59 s  ClockTime = 444 s

Time = 0.01

Courant Number mean: 0.107878 max: 0.706182
DILUPBiCGStab:  Solving for Ux, Initial residual = 0.00685578, Final residual = 9.48517e-06, No Iterations 5
DILUPBiCGStab:  Solving for Uy, Initial residual = 0.0164162, Final residual = 1.97401e-05, No Iterations 5
DILUPBiCGStab:  Solving for Uz, Initial residual = 0.0479218, Final residual = 0.000163991, No Iterations 5
linear solve U 403306
[OGL LOG] init_host_sparsity_pattern : 120 ms
[OGL LOG] matrix not stored update host matrix
[OGL LOG] update_host_mtx : 62 ms
[OGL LOG] matrix is not yet sorted, sorting host matrix
[OGL LOG] sort_host_mtx_sparsity_pattern : 93 ms
[OGL LOG] sort_host_mtx : 46 ms
[OGL LOG] init_preconditioner : 0 ms
[OGL LOG] solve : 25716 ms
BJompGKOBiCGStab:  Solving for p, Initial residual = 0.0665149, Final residual = 9.90447e-05, No Iterations 335
linear solve p 26095021
time step continuity errors : sum local = 4.71201e-08, global = 1.52347e-21, cumulative = -3.09916e-21
[OGL LOG] init_host_sparsity_pattern : 120 ms
[OGL LOG] matrix not stored update host matrix
[OGL LOG] update_host_mtx : 58 ms
[OGL LOG] matrix is not yet sorted, sorting host matrix
[OGL LOG] sort_host_mtx_sparsity_pattern : 89 ms
[OGL LOG] sort_host_mtx : 46 ms
[OGL LOG] init_preconditioner : 0 ms
[OGL LOG] solve : 22216 ms
BJompGKOBiCGStab:  Solving for p, Initial residual = 0.0555963, Final residual = 9.58519e-05, No Iterations 290
linear solve p 22586386
time step continuity errors : sum local = 4.73335e-08, global = -1.09755e-20, cumulative = -1.40747e-20
ExecutionTime = 490.76 s  ClockTime = 493 s

End

