/*---------------------------------------------------------------------------*\
  =========                 |
  \\      /  F ield         | OpenFOAM: The Open Source CFD Toolbox
   \\    /   O peration     | Website:  https://openfoam.org
    \\  /    A nd           | Version:  8
     \\/     M anipulation  |
\*---------------------------------------------------------------------------*/
Build  : 8-ef60d22ea792
Exec   : icoFoam
Date   : Jul 29 2021
Time   : 01:22:33
Host   : "uc2n414.localdomain"
PID    : 2844679
I/O    : uncollated
Case   : /pfs/data5/home/kit/scc/nq7776/code/OBR/lidDrivenCavity3D/Variation_mesh/95/Variation_matrix_solver/CG_NoPrecond_OMP/base
nProcs : 1
sigFpe : Enabling floating point exception trapping (FOAM_SIGFPE).
fileModificationChecking : Monitoring run-time modified files using timeStampMaster (fileModificationSkew 10)
allowSystemOperations : Allowing user-supplied system call operations

// * * * * * * * * * * * * * * * * * * * * * * * * * * * * * * * * * * * * * //
Create time

Create mesh for time = 0

Reading transportProperties

Reading field p

Reading field U

Reading/calculating face flux field phi


Starting time loop

Time = 0.001

Courant Number mean: 0 max: 0
DILUPBiCGStab:  Solving for Ux, Initial residual = 1, Final residual = 0.00597808, No Iterations 5
DILUPBiCGStab:  Solving for Uy:  solution singularity
DILUPBiCGStab:  Solving for Uz:  solution singularity
linear solve U 424690
[OGL LOG] init_host_sparsity_pattern : 270 ms
[OGL LOG] matrix not stored update host matrix
[OGL LOG] update_host_mtx : 137 ms
[OGL LOG] matrix is not yet sorted, compute sorting idxs
[OGL LOG] compute_sort : 8303 ms
[OGL LOG] matrix is not yet sorted, sorting host matrix
[OGL LOG] sort_host_mtx_sparsity_pattern : 191 ms
[OGL LOG] sort_host_mtx : 113 ms
[OGL LOG] init_preconditioner : 0 ms
[OGL LOG] solve : 20045 ms
noneompGKOCG:  Solving for p, Initial residual = 1, Final residual = 9.68668e-05, No Iterations 752
linear solve p 29250104
time step continuity errors : sum local = 5.59276e-08, global = 1.39501e-20, cumulative = 1.39501e-20
[OGL LOG] init_host_sparsity_pattern : 257 ms
[OGL LOG] matrix not stored update host matrix
[OGL LOG] update_host_mtx : 136 ms
[OGL LOG] matrix is not yet sorted, sorting host matrix
[OGL LOG] sort_host_mtx_sparsity_pattern : 191 ms
[OGL LOG] sort_host_mtx : 112 ms
[OGL LOG] init_preconditioner : 0 ms
[OGL LOG] solve : 19744 ms
noneompGKOCG:  Solving for p, Initial residual = 0.770646, Final residual = 9.72188e-05, No Iterations 743
linear solve p 20577215
time step continuity errors : sum local = 7.12877e-08, global = -1.09105e-20, cumulative = 3.03963e-21
ExecutionTime = 53.81 s  ClockTime = 54 s

Time = 0.002

Courant Number mean: 0.0534417 max: 0.757475
DILUPBiCGStab:  Solving for Ux, Initial residual = 0.140129, Final residual = 0.00255033, No Iterations 5
DILUPBiCGStab:  Solving for Uy, Initial residual = 0.419603, Final residual = 0.00695949, No Iterations 5
DILUPBiCGStab:  Solving for Uz, Initial residual = 0.989728, Final residual = 0.0177983, No Iterations 5
linear solve U 830346
[OGL LOG] init_host_sparsity_pattern : 249 ms
[OGL LOG] matrix not stored update host matrix
[OGL LOG] update_host_mtx : 136 ms
[OGL LOG] matrix is not yet sorted, sorting host matrix
[OGL LOG] sort_host_mtx_sparsity_pattern : 191 ms
[OGL LOG] sort_host_mtx : 112 ms
[OGL LOG] init_preconditioner : 0 ms
[OGL LOG] solve : 19568 ms
noneompGKOCG:  Solving for p, Initial residual = 0.783551, Final residual = 9.62028e-05, No Iterations 739
linear solve p 20394367
time step continuity errors : sum local = 9.52694e-08, global = -3.33469e-21, cumulative = -2.9506e-22
[OGL LOG] init_host_sparsity_pattern : 267 ms
[OGL LOG] matrix not stored update host matrix
[OGL LOG] update_host_mtx : 136 ms
[OGL LOG] matrix is not yet sorted, sorting host matrix
[OGL LOG] sort_host_mtx_sparsity_pattern : 191 ms
[OGL LOG] sort_host_mtx : 112 ms
[OGL LOG] init_preconditioner : 0 ms
[OGL LOG] solve : 19514 ms
noneompGKOCG:  Solving for p, Initial residual = 0.722896, Final residual = 9.60071e-05, No Iterations 737
linear solve p 20358216
time step continuity errors : sum local = 9.7033e-08, global = -5.71309e-21, cumulative = -6.00815e-21
ExecutionTime = 95.76 s  ClockTime = 96 s

Time = 0.003

Courant Number mean: 0.0810139 max: 0.886815
DILUPBiCGStab:  Solving for Ux, Initial residual = 0.0625977, Final residual = 0.00087712, No Iterations 5
DILUPBiCGStab:  Solving for Uy, Initial residual = 0.202715, Final residual = 0.00232247, No Iterations 5
DILUPBiCGStab:  Solving for Uz, Initial residual = 0.778863, Final residual = 0.0126324, No Iterations 5
linear solve U 837575
[OGL LOG] init_host_sparsity_pattern : 259 ms
[OGL LOG] matrix not stored update host matrix
[OGL LOG] update_host_mtx : 136 ms
[OGL LOG] matrix is not yet sorted, sorting host matrix
[OGL LOG] sort_host_mtx_sparsity_pattern : 191 ms
[OGL LOG] sort_host_mtx : 112 ms
[OGL LOG] init_preconditioner : 0 ms
[OGL LOG] solve : 11668 ms
noneompGKOCG:  Solving for p, Initial residual = 0.809016, Final residual = 9.80962e-05, No Iterations 440
linear solve p 12504519
time step continuity errors : sum local = 8.95537e-08, global = -1.20236e-20, cumulative = -1.80318e-20
[OGL LOG] init_host_sparsity_pattern : 267 ms
[OGL LOG] matrix not stored update host matrix
[OGL LOG] update_host_mtx : 133 ms
[OGL LOG] matrix is not yet sorted, sorting host matrix
[OGL LOG] sort_host_mtx_sparsity_pattern : 191 ms
[OGL LOG] sort_host_mtx : 112 ms
[OGL LOG] init_preconditioner : 0 ms
[OGL LOG] solve : 11794 ms
noneompGKOCG:  Solving for p, Initial residual = 0.776119, Final residual = 9.46495e-05, No Iterations 439
linear solve p 12636325
time step continuity errors : sum local = 8.25483e-08, global = 4.17032e-21, cumulative = -1.38615e-20
ExecutionTime = 122.13 s  ClockTime = 123 s

Time = 0.004

Courant Number mean: 0.0936152 max: 0.877113
DILUPBiCGStab:  Solving for Ux, Initial residual = 0.0356753, Final residual = 0.000617167, No Iterations 5
DILUPBiCGStab:  Solving for Uy, Initial residual = 0.148236, Final residual = 0.00224198, No Iterations 5
DILUPBiCGStab:  Solving for Uz, Initial residual = 0.579731, Final residual = 0.00799749, No Iterations 5
linear solve U 837390
[OGL LOG] init_host_sparsity_pattern : 259 ms
[OGL LOG] matrix not stored update host matrix
[OGL LOG] update_host_mtx : 136 ms
[OGL LOG] matrix is not yet sorted, sorting host matrix
[OGL LOG] sort_host_mtx_sparsity_pattern : 191 ms
[OGL LOG] sort_host_mtx : 112 ms
[OGL LOG] init_preconditioner : 0 ms
[OGL LOG] solve : 11626 ms
noneompGKOCG:  Solving for p, Initial residual = 0.704789, Final residual = 9.94567e-05, No Iterations 438
linear solve p 12462643
time step continuity errors : sum local = 8.26656e-08, global = -1.99514e-20, cumulative = -3.38128e-20
[OGL LOG] init_host_sparsity_pattern : 267 ms
[OGL LOG] matrix not stored update host matrix
[OGL LOG] update_host_mtx : 136 ms
[OGL LOG] matrix is not yet sorted, sorting host matrix
[OGL LOG] sort_host_mtx_sparsity_pattern : 191 ms
[OGL LOG] sort_host_mtx : 112 ms
[OGL LOG] init_preconditioner : 0 ms
[OGL LOG] solve : 10685 ms
noneompGKOCG:  Solving for p, Initial residual = 0.639059, Final residual = 9.69166e-05, No Iterations 403
linear solve p 11529806
time step continuity errors : sum local = 7.9396e-08, global = -5.33788e-22, cumulative = -3.43466e-20
ExecutionTime = 147.36 s  ClockTime = 148 s

Time = 0.005

Courant Number mean: 0.105259 max: 0.889662
DILUPBiCGStab:  Solving for Ux, Initial residual = 0.0274666, Final residual = 0.000432737, No Iterations 5
DILUPBiCGStab:  Solving for Uy, Initial residual = 0.081214, Final residual = 0.00141311, No Iterations 5
DILUPBiCGStab:  Solving for Uz, Initial residual = 0.484216, Final residual = 0.00623561, No Iterations 5
linear solve U 841900
[OGL LOG] init_host_sparsity_pattern : 259 ms
[OGL LOG] matrix not stored update host matrix
[OGL LOG] update_host_mtx : 137 ms
[OGL LOG] matrix is not yet sorted, sorting host matrix
[OGL LOG] sort_host_mtx_sparsity_pattern : 192 ms
[OGL LOG] sort_host_mtx : 112 ms
[OGL LOG] init_preconditioner : 0 ms
[OGL LOG] solve : 10462 ms
noneompGKOCG:  Solving for p, Initial residual = 0.699287, Final residual = 9.94965e-05, No Iterations 395
linear solve p 11300291
time step continuity errors : sum local = 6.99929e-08, global = 2.78517e-21, cumulative = -3.15614e-20
[OGL LOG] init_host_sparsity_pattern : 267 ms
[OGL LOG] matrix not stored update host matrix
[OGL LOG] update_host_mtx : 136 ms
[OGL LOG] matrix is not yet sorted, sorting host matrix
[OGL LOG] sort_host_mtx_sparsity_pattern : 191 ms
[OGL LOG] sort_host_mtx : 112 ms
[OGL LOG] init_preconditioner : 0 ms
[OGL LOG] solve : 10261 ms
noneompGKOCG:  Solving for p, Initial residual = 0.648226, Final residual = 9.88918e-05, No Iterations 387
linear solve p 11106776
time step continuity errors : sum local = 6.49249e-08, global = 7.12963e-22, cumulative = -3.08485e-20
ExecutionTime = 171.01 s  ClockTime = 172 s

Time = 0.006

Courant Number mean: 0.113391 max: 0.895055
DILUPBiCGStab:  Solving for Ux, Initial residual = 0.0177921, Final residual = 0.000284109, No Iterations 5
DILUPBiCGStab:  Solving for Uy, Initial residual = 0.0672164, Final residual = 0.00104597, No Iterations 5
DILUPBiCGStab:  Solving for Uz, Initial residual = 0.346892, Final residual = 0.00452795, No Iterations 5
linear solve U 839733
[OGL LOG] init_host_sparsity_pattern : 259 ms
[OGL LOG] matrix not stored update host matrix
[OGL LOG] update_host_mtx : 136 ms
[OGL LOG] matrix is not yet sorted, sorting host matrix
[OGL LOG] sort_host_mtx_sparsity_pattern : 191 ms
[OGL LOG] sort_host_mtx : 112 ms
[OGL LOG] init_preconditioner : 0 ms
[OGL LOG] solve : 10264 ms
noneompGKOCG:  Solving for p, Initial residual = 0.581989, Final residual = 9.619e-05, No Iterations 387
linear solve p 11100365
time step continuity errors : sum local = 5.86637e-08, global = 8.53553e-21, cumulative = -2.23129e-20
[OGL LOG] init_host_sparsity_pattern : 268 ms
[OGL LOG] matrix not stored update host matrix
[OGL LOG] update_host_mtx : 137 ms
[OGL LOG] matrix is not yet sorted, sorting host matrix
[OGL LOG] sort_host_mtx_sparsity_pattern : 191 ms
[OGL LOG] sort_host_mtx : 112 ms
[OGL LOG] init_preconditioner : 0 ms
[OGL LOG] solve : 10205 ms
noneompGKOCG:  Solving for p, Initial residual = 0.52332, Final residual = 9.70627e-05, No Iterations 384
linear solve p 11051448
time step continuity errors : sum local = 5.82372e-08, global = 7.48757e-21, cumulative = -1.48254e-20
ExecutionTime = 194.41 s  ClockTime = 195 s

Time = 0.007

Courant Number mean: 0.120594 max: 0.898295
DILUPBiCGStab:  Solving for Ux, Initial residual = 0.0152426, Final residual = 0.000219134, No Iterations 5
DILUPBiCGStab:  Solving for Uy, Initial residual = 0.0437744, Final residual = 0.000706506, No Iterations 5
DILUPBiCGStab:  Solving for Uz, Initial residual = 0.264214, Final residual = 0.00348842, No Iterations 5
linear solve U 843272
[OGL LOG] init_host_sparsity_pattern : 259 ms
[OGL LOG] matrix not stored update host matrix
[OGL LOG] update_host_mtx : 136 ms
[OGL LOG] matrix is not yet sorted, sorting host matrix
[OGL LOG] sort_host_mtx_sparsity_pattern : 191 ms
[OGL LOG] sort_host_mtx : 112 ms
[OGL LOG] init_preconditioner : 0 ms
[OGL LOG] solve : 19042 ms
noneompGKOCG:  Solving for p, Initial residual = 0.562281, Final residual = 9.93608e-05, No Iterations 725
linear solve p 19879374
time step continuity errors : sum local = 4.92763e-08, global = 2.15602e-20, cumulative = 6.7348e-21
[OGL LOG] init_host_sparsity_pattern : 267 ms
[OGL LOG] matrix not stored update host matrix
[OGL LOG] update_host_mtx : 136 ms
[OGL LOG] matrix is not yet sorted, sorting host matrix
[OGL LOG] sort_host_mtx_sparsity_pattern : 191 ms
[OGL LOG] sort_host_mtx : 112 ms
[OGL LOG] init_preconditioner : 0 ms
[OGL LOG] solve : 19185 ms
noneompGKOCG:  Solving for p, Initial residual = 0.504909, Final residual = 9.98246e-05, No Iterations 724
linear solve p 20030575
time step continuity errors : sum local = 4.92938e-08, global = 7.74421e-22, cumulative = 7.50922e-21
ExecutionTime = 235.5 s  ClockTime = 237 s

Time = 0.008

Courant Number mean: 0.126416 max: 0.902024
DILUPBiCGStab:  Solving for Ux, Initial residual = 0.0110599, Final residual = 0.00014948, No Iterations 5
DILUPBiCGStab:  Solving for Uy, Initial residual = 0.0374999, Final residual = 0.00054766, No Iterations 5
DILUPBiCGStab:  Solving for Uz, Initial residual = 0.197214, Final residual = 0.00262221, No Iterations 5
linear solve U 840459
[OGL LOG] init_host_sparsity_pattern : 259 ms
[OGL LOG] matrix not stored update host matrix
[OGL LOG] update_host_mtx : 136 ms
[OGL LOG] matrix is not yet sorted, sorting host matrix
[OGL LOG] sort_host_mtx_sparsity_pattern : 191 ms
[OGL LOG] sort_host_mtx : 112 ms
[OGL LOG] init_preconditioner : 0 ms
[OGL LOG] solve : 9538 ms
noneompGKOCG:  Solving for p, Initial residual = 0.459242, Final residual = 9.80561e-05, No Iterations 359
linear solve p 10375800
time step continuity errors : sum local = 4.77786e-08, global = -5.73245e-21, cumulative = 1.77676e-21
[OGL LOG] init_host_sparsity_pattern : 267 ms
[OGL LOG] matrix not stored update host matrix
[OGL LOG] update_host_mtx : 136 ms
[OGL LOG] matrix is not yet sorted, sorting host matrix
[OGL LOG] sort_host_mtx_sparsity_pattern : 191 ms
[OGL LOG] sort_host_mtx : 113 ms
[OGL LOG] init_preconditioner : 0 ms
[OGL LOG] solve : 9130 ms
noneompGKOCG:  Solving for p, Initial residual = 0.40697, Final residual = 9.98811e-05, No Iterations 345
linear solve p 9976473
time step continuity errors : sum local = 4.81476e-08, global = -3.41864e-21, cumulative = -1.64188e-21
ExecutionTime = 257.11 s  ClockTime = 258 s

Time = 0.009

Courant Number mean: 0.131553 max: 0.903729
DILUPBiCGStab:  Solving for Ux, Initial residual = 0.00964989, Final residual = 0.000116434, No Iterations 5
DILUPBiCGStab:  Solving for Uy, Initial residual = 0.0273321, Final residual = 0.000335214, No Iterations 5
DILUPBiCGStab:  Solving for Uz, Initial residual = 0.147628, Final residual = 0.00216098, No Iterations 5
linear solve U 998702
[OGL LOG] init_host_sparsity_pattern : 241 ms
[OGL LOG] matrix not stored update host matrix
[OGL LOG] update_host_mtx : 127 ms
[OGL LOG] matrix is not yet sorted, sorting host matrix
[OGL LOG] sort_host_mtx_sparsity_pattern : 178 ms
[OGL LOG] sort_host_mtx : 105 ms
[OGL LOG] init_preconditioner : 0 ms
[OGL LOG] solve : 9060 ms
noneompGKOCG:  Solving for p, Initial residual = 0.428008, Final residual = 9.72122e-05, No Iterations 362
linear solve p 9853557
time step continuity errors : sum local = 4.59568e-08, global = 7.73643e-21, cumulative = 6.09456e-21
[OGL LOG] init_host_sparsity_pattern : 268 ms
[OGL LOG] matrix not stored update host matrix
[OGL LOG] update_host_mtx : 134 ms
[OGL LOG] matrix is not yet sorted, sorting host matrix
[OGL LOG] sort_host_mtx_sparsity_pattern : 188 ms
[OGL LOG] sort_host_mtx : 110 ms
[OGL LOG] init_preconditioner : 0 ms
[OGL LOG] solve : 9085 ms
noneompGKOCG:  Solving for p, Initial residual = 0.37585, Final residual = 9.6279e-05, No Iterations 341
linear solve p 9928799
time step continuity errors : sum local = 4.18197e-08, global = 1.09606e-20, cumulative = 1.70552e-20
ExecutionTime = 278.47 s  ClockTime = 280 s

Time = 0.01

Courant Number mean: 0.135966 max: 0.906069
DILUPBiCGStab:  Solving for Ux, Initial residual = 0.00755093, Final residual = 8.36518e-05, No Iterations 5
DILUPBiCGStab:  Solving for Uy, Initial residual = 0.0238494, Final residual = 0.000280381, No Iterations 5
DILUPBiCGStab:  Solving for Uz, Initial residual = 0.116256, Final residual = 0.00174168, No Iterations 5
linear solve U 1082560
[OGL LOG] init_host_sparsity_pattern : 241 ms
[OGL LOG] matrix not stored update host matrix
[OGL LOG] update_host_mtx : 127 ms
[OGL LOG] matrix is not yet sorted, sorting host matrix
[OGL LOG] sort_host_mtx_sparsity_pattern : 200 ms
[OGL LOG] sort_host_mtx : 106 ms
[OGL LOG] init_preconditioner : 0 ms
[OGL LOG] solve : 17978 ms
noneompGKOCG:  Solving for p, Initial residual = 0.351151, Final residual = 9.88473e-05, No Iterations 715
linear solve p 18826323
time step continuity errors : sum local = 4.05303e-08, global = 7.44398e-21, cumulative = 2.44992e-20
[OGL LOG] init_host_sparsity_pattern : 249 ms
[OGL LOG] matrix not stored update host matrix
[OGL LOG] update_host_mtx : 127 ms
[OGL LOG] matrix is not yet sorted, sorting host matrix
[OGL LOG] sort_host_mtx_sparsity_pattern : 178 ms
[OGL LOG] sort_host_mtx : 105 ms
[OGL LOG] init_preconditioner : 0 ms
[OGL LOG] solve : 17960 ms
noneompGKOCG:  Solving for p, Initial residual = 0.307703, Final residual = 9.90779e-05, No Iterations 713
linear solve p 18752949
time step continuity errors : sum local = 4.04673e-08, global = 1.49404e-20, cumulative = 3.94395e-20
ExecutionTime = 317.81 s  ClockTime = 319 s

End

