/*---------------------------------------------------------------------------*\
  =========                 |
  \\      /  F ield         | OpenFOAM: The Open Source CFD Toolbox
   \\    /   O peration     | Website:  https://openfoam.org
    \\  /    A nd           | Version:  8
     \\/     M anipulation  |
\*---------------------------------------------------------------------------*/
Build  : 8-ef60d22ea792
Exec   : icoFoam
Date   : Jul 29 2021
Time   : 03:41:53
Host   : "uc2n414.localdomain"
PID    : 2864233
I/O    : uncollated
Case   : /pfs/data5/home/kit/scc/nq7776/code/OBR/lidDrivenCavity3D/Variation_mesh/70/Variation_matrix_solver/CG_BJ_OMP/base
nProcs : 1
sigFpe : Enabling floating point exception trapping (FOAM_SIGFPE).
fileModificationChecking : Monitoring run-time modified files using timeStampMaster (fileModificationSkew 10)
allowSystemOperations : Allowing user-supplied system call operations

// * * * * * * * * * * * * * * * * * * * * * * * * * * * * * * * * * * * * * //
Create time

Create mesh for time = 0

Reading transportProperties

Reading field p

Reading field U

Reading/calculating face flux field phi


Starting time loop

Time = 0.001

Courant Number mean: 0 max: 0
DILUPBiCGStab:  Solving for Ux, Initial residual = 1, Final residual = 0.00143011, No Iterations 5
DILUPBiCGStab:  Solving for Uy:  solution singularity
DILUPBiCGStab:  Solving for Uz:  solution singularity
linear solve U 161037
[OGL LOG] init_host_sparsity_pattern : 98 ms
[OGL LOG] matrix not stored update host matrix
[OGL LOG] update_host_mtx : 51 ms
[OGL LOG] matrix is not yet sorted, compute sorting idxs
[OGL LOG] compute_sort : 2983 ms
[OGL LOG] matrix is not yet sorted, sorting host matrix
[OGL LOG] sort_host_mtx_sparsity_pattern : 71 ms
[OGL LOG] sort_host_mtx : 43 ms
[OGL LOG] init_preconditioner : 93 ms
 CG create  precond 
[OGL LOG] solve : 13544 ms
BJompGKOCG:  Solving for p, Initial residual = 1, Final residual = 9.95369e-05, No Iterations 464
linear solve p 16958455
time step continuity errors : sum local = 5.85427e-08, global = 4.34353e-21, cumulative = 4.34353e-21
[OGL LOG] init_host_sparsity_pattern : 98 ms
[OGL LOG] matrix not stored update host matrix
[OGL LOG] update_host_mtx : 51 ms
[OGL LOG] matrix is not yet sorted, sorting host matrix
[OGL LOG] sort_host_mtx_sparsity_pattern : 71 ms
[OGL LOG] sort_host_mtx : 35 ms
[OGL LOG] init_preconditioner : 0 ms
 CG create  precond 
[OGL LOG] solve : 13023 ms
BJompGKOCG:  Solving for p, Initial residual = 0.723816, Final residual = 9.65588e-05, No Iterations 447
linear solve p 13324262
time step continuity errors : sum local = 7.54958e-08, global = -1.04436e-20, cumulative = -6.10011e-21
ExecutionTime = 31.82 s  ClockTime = 32 s

Time = 0.002

Courant Number mean: 0.0394021 max: 0.518352
DILUPBiCGStab:  Solving for Ux, Initial residual = 0.151291, Final residual = 0.000459808, No Iterations 5
DILUPBiCGStab:  Solving for Uy, Initial residual = 0.361768, Final residual = 0.000929263, No Iterations 5
DILUPBiCGStab:  Solving for Uz, Initial residual = 0.984653, Final residual = 0.0030302, No Iterations 5
linear solve U 323248
[OGL LOG] init_host_sparsity_pattern : 97 ms
[OGL LOG] matrix not stored update host matrix
[OGL LOG] update_host_mtx : 51 ms
[OGL LOG] matrix is not yet sorted, sorting host matrix
[OGL LOG] sort_host_mtx_sparsity_pattern : 70 ms
[OGL LOG] sort_host_mtx : 35 ms
[OGL LOG] init_preconditioner : 0 ms
 CG create  precond 
[OGL LOG] solve : 12863 ms
BJompGKOCG:  Solving for p, Initial residual = 0.674247, Final residual = 9.44653e-05, No Iterations 441
linear solve p 13163308
time step continuity errors : sum local = 8.08239e-08, global = 5.99766e-21, cumulative = -1.02452e-22
[OGL LOG] init_host_sparsity_pattern : 95 ms
[OGL LOG] matrix not stored update host matrix
[OGL LOG] update_host_mtx : 51 ms
[OGL LOG] matrix is not yet sorted, sorting host matrix
[OGL LOG] sort_host_mtx_sparsity_pattern : 70 ms
[OGL LOG] sort_host_mtx : 36 ms
[OGL LOG] init_preconditioner : 0 ms
 CG create  precond 
[OGL LOG] solve : 12799 ms
BJompGKOCG:  Solving for p, Initial residual = 0.601573, Final residual = 9.67927e-05, No Iterations 438
linear solve p 13097603
time step continuity errors : sum local = 8.46901e-08, global = -2.06834e-21, cumulative = -2.17079e-21
ExecutionTime = 58.53 s  ClockTime = 58 s

Time = 0.003

Courant Number mean: 0.059136 max: 0.61629
DILUPBiCGStab:  Solving for Ux, Initial residual = 0.0520837, Final residual = 0.000108122, No Iterations 5
DILUPBiCGStab:  Solving for Uy, Initial residual = 0.118686, Final residual = 0.000223833, No Iterations 5
DILUPBiCGStab:  Solving for Uz, Initial residual = 0.504056, Final residual = 0.00145515, No Iterations 5
linear solve U 321985
[OGL LOG] init_host_sparsity_pattern : 93 ms
[OGL LOG] matrix not stored update host matrix
[OGL LOG] update_host_mtx : 52 ms
[OGL LOG] matrix is not yet sorted, sorting host matrix
[OGL LOG] sort_host_mtx_sparsity_pattern : 71 ms
[OGL LOG] sort_host_mtx : 35 ms
[OGL LOG] init_preconditioner : 0 ms
 CG create  precond 
[OGL LOG] solve : 12783 ms
BJompGKOCG:  Solving for p, Initial residual = 0.609231, Final residual = 9.07907e-05, No Iterations 436
linear solve p 13078882
time step continuity errors : sum local = 5.56617e-08, global = -7.89536e-21, cumulative = -1.00662e-20
[OGL LOG] init_host_sparsity_pattern : 92 ms
[OGL LOG] matrix not stored update host matrix
[OGL LOG] update_host_mtx : 44 ms
[OGL LOG] matrix is not yet sorted, sorting host matrix
[OGL LOG] sort_host_mtx_sparsity_pattern : 71 ms
[OGL LOG] sort_host_mtx : 35 ms
[OGL LOG] init_preconditioner : 0 ms
 CG create  precond 
[OGL LOG] solve : 12665 ms
BJompGKOCG:  Solving for p, Initial residual = 0.557347, Final residual = 9.99225e-05, No Iterations 434
linear solve p 12952215
time step continuity errors : sum local = 5.94779e-08, global = 8.32086e-21, cumulative = -1.74529e-21
ExecutionTime = 85 s  ClockTime = 85 s

Time = 0.004

Courant Number mean: 0.0695971 max: 0.629497
DILUPBiCGStab:  Solving for Ux, Initial residual = 0.0286858, Final residual = 5.77619e-05, No Iterations 5
DILUPBiCGStab:  Solving for Uy, Initial residual = 0.0790528, Final residual = 0.000132055, No Iterations 5
DILUPBiCGStab:  Solving for Uz, Initial residual = 0.26212, Final residual = 0.000583209, No Iterations 5
linear solve U 316481
[OGL LOG] init_host_sparsity_pattern : 91 ms
[OGL LOG] matrix not stored update host matrix
[OGL LOG] update_host_mtx : 44 ms
[OGL LOG] matrix is not yet sorted, sorting host matrix
[OGL LOG] sort_host_mtx_sparsity_pattern : 72 ms
[OGL LOG] sort_host_mtx : 35 ms
[OGL LOG] init_preconditioner : 0 ms
 CG create  precond 
[OGL LOG] solve : 12520 ms
BJompGKOCG:  Solving for p, Initial residual = 0.385806, Final residual = 9.527e-05, No Iterations 428
linear solve p 12806585
time step continuity errors : sum local = 5.07918e-08, global = 2.38015e-21, cumulative = 6.34852e-22
[OGL LOG] init_host_sparsity_pattern : 93 ms
[OGL LOG] matrix not stored update host matrix
[OGL LOG] update_host_mtx : 44 ms
[OGL LOG] matrix is not yet sorted, sorting host matrix
[OGL LOG] sort_host_mtx_sparsity_pattern : 71 ms
[OGL LOG] sort_host_mtx : 34 ms
[OGL LOG] init_preconditioner : 0 ms
 CG create  precond 
[OGL LOG] solve : 12475 ms
BJompGKOCG:  Solving for p, Initial residual = 0.325481, Final residual = 9.57239e-05, No Iterations 426
linear solve p 12761755
time step continuity errors : sum local = 5.16666e-08, global = -2.51924e-21, cumulative = -1.88439e-21
ExecutionTime = 111.02 s  ClockTime = 111 s

Time = 0.005

Courant Number mean: 0.0778345 max: 0.639339
DILUPBiCGStab:  Solving for Ux, Initial residual = 0.0206103, Final residual = 3.14e-05, No Iterations 5
DILUPBiCGStab:  Solving for Uy, Initial residual = 0.0456785, Final residual = 6.1053e-05, No Iterations 5
DILUPBiCGStab:  Solving for Uz, Initial residual = 0.0901728, Final residual = 0.000191472, No Iterations 5
linear solve U 315047
[OGL LOG] init_host_sparsity_pattern : 91 ms
[OGL LOG] matrix not stored update host matrix
[OGL LOG] update_host_mtx : 45 ms
[OGL LOG] matrix is not yet sorted, sorting host matrix
[OGL LOG] sort_host_mtx_sparsity_pattern : 70 ms
[OGL LOG] sort_host_mtx : 35 ms
[OGL LOG] init_preconditioner : 0 ms
 CG create  precond 
[OGL LOG] solve : 11625 ms
BJompGKOCG:  Solving for p, Initial residual = 0.289544, Final residual = 9.81705e-05, No Iterations 397
linear solve p 11912073
time step continuity errors : sum local = 4.36908e-08, global = -6.07051e-21, cumulative = -7.9549e-21
[OGL LOG] init_host_sparsity_pattern : 91 ms
[OGL LOG] matrix not stored update host matrix
[OGL LOG] update_host_mtx : 44 ms
[OGL LOG] matrix is not yet sorted, sorting host matrix
[OGL LOG] sort_host_mtx_sparsity_pattern : 69 ms
[OGL LOG] sort_host_mtx : 35 ms
[OGL LOG] init_preconditioner : 0 ms
 CG create  precond 
[OGL LOG] solve : 11588 ms
BJompGKOCG:  Solving for p, Initial residual = 0.247293, Final residual = 9.78366e-05, No Iterations 396
linear solve p 11872120
time step continuity errors : sum local = 4.32057e-08, global = 3.41882e-21, cumulative = -4.53609e-21
ExecutionTime = 135.25 s  ClockTime = 135 s

Time = 0.006

Courant Number mean: 0.0841385 max: 0.645083
DILUPBiCGStab:  Solving for Ux, Initial residual = 0.014895, Final residual = 2.1975e-05, No Iterations 5
DILUPBiCGStab:  Solving for Uy, Initial residual = 0.0354636, Final residual = 3.66459e-05, No Iterations 5
DILUPBiCGStab:  Solving for Uz, Initial residual = 0.0796079, Final residual = 0.000157433, No Iterations 5
linear solve U 313667
[OGL LOG] init_host_sparsity_pattern : 92 ms
[OGL LOG] matrix not stored update host matrix
[OGL LOG] update_host_mtx : 47 ms
[OGL LOG] matrix is not yet sorted, sorting host matrix
[OGL LOG] sort_host_mtx_sparsity_pattern : 70 ms
[OGL LOG] sort_host_mtx : 35 ms
[OGL LOG] init_preconditioner : 0 ms
 CG create  precond 
[OGL LOG] solve : 5774 ms
BJompGKOCG:  Solving for p, Initial residual = 0.177452, Final residual = 9.27276e-05, No Iterations 197
linear solve p 6063670
time step continuity errors : sum local = 4.77927e-08, global = 1.4705e-20, cumulative = 1.0169e-20
[OGL LOG] init_host_sparsity_pattern : 94 ms
[OGL LOG] matrix not stored update host matrix
[OGL LOG] update_host_mtx : 45 ms
[OGL LOG] matrix is not yet sorted, sorting host matrix
[OGL LOG] sort_host_mtx_sparsity_pattern : 70 ms
[OGL LOG] sort_host_mtx : 34 ms
[OGL LOG] init_preconditioner : 0 ms
 CG create  precond 
[OGL LOG] solve : 5703 ms
BJompGKOCG:  Solving for p, Initial residual = 0.146803, Final residual = 8.94435e-05, No Iterations 195
linear solve p 5991937
time step continuity errors : sum local = 4.11892e-08, global = 4.62594e-22, cumulative = 1.06316e-20
ExecutionTime = 147.78 s  ClockTime = 148 s

Time = 0.007

Courant Number mean: 0.0893567 max: 0.648975
DILUPBiCGStab:  Solving for Ux, Initial residual = 0.011884, Final residual = 1.23412e-05, No Iterations 5
DILUPBiCGStab:  Solving for Uy, Initial residual = 0.0272429, Final residual = 2.86798e-05, No Iterations 5
DILUPBiCGStab:  Solving for Uz, Initial residual = 0.049756, Final residual = 7.73909e-05, No Iterations 5
linear solve U 315230
[OGL LOG] init_host_sparsity_pattern : 92 ms
[OGL LOG] matrix not stored update host matrix
[OGL LOG] update_host_mtx : 44 ms
[OGL LOG] matrix is not yet sorted, sorting host matrix
[OGL LOG] sort_host_mtx_sparsity_pattern : 75 ms
[OGL LOG] sort_host_mtx : 34 ms
[OGL LOG] init_preconditioner : 0 ms
 CG create  precond 
[OGL LOG] solve : 5680 ms
BJompGKOCG:  Solving for p, Initial residual = 0.124037, Final residual = 9.60658e-05, No Iterations 194
linear solve p 5969763
time step continuity errors : sum local = 3.99189e-08, global = 1.82421e-20, cumulative = 2.88737e-20
[OGL LOG] init_host_sparsity_pattern : 94 ms
[OGL LOG] matrix not stored update host matrix
[OGL LOG] update_host_mtx : 44 ms
[OGL LOG] matrix is not yet sorted, sorting host matrix
[OGL LOG] sort_host_mtx_sparsity_pattern : 70 ms
[OGL LOG] sort_host_mtx : 34 ms
[OGL LOG] init_preconditioner : 0 ms
 CG create  precond 
[OGL LOG] solve : 5534 ms
BJompGKOCG:  Solving for p, Initial residual = 0.103537, Final residual = 9.8538e-05, No Iterations 189
linear solve p 5822378
time step continuity errors : sum local = 4.11592e-08, global = 2.10976e-20, cumulative = 4.99713e-20
ExecutionTime = 160.04 s  ClockTime = 160 s

Time = 0.008

Courant Number mean: 0.0937058 max: 0.652003
DILUPBiCGStab:  Solving for Ux, Initial residual = 0.00969377, Final residual = 1.01163e-05, No Iterations 5
DILUPBiCGStab:  Solving for Uy, Initial residual = 0.0223562, Final residual = 1.32891e-05, No Iterations 5
DILUPBiCGStab:  Solving for Uz, Initial residual = 0.0440588, Final residual = 5.64883e-05, No Iterations 5
linear solve U 315637
[OGL LOG] init_host_sparsity_pattern : 95 ms
[OGL LOG] matrix not stored update host matrix
[OGL LOG] update_host_mtx : 44 ms
[OGL LOG] matrix is not yet sorted, sorting host matrix
[OGL LOG] sort_host_mtx_sparsity_pattern : 70 ms
[OGL LOG] sort_host_mtx : 35 ms
[OGL LOG] init_preconditioner : 0 ms
 CG create  precond 
[OGL LOG] solve : 5536 ms
BJompGKOCG:  Solving for p, Initial residual = 0.0805663, Final residual = 9.98907e-05, No Iterations 189
linear solve p 5826142
time step continuity errors : sum local = 4.89983e-08, global = 2.82178e-21, cumulative = 5.27931e-20
[OGL LOG] init_host_sparsity_pattern : 91 ms
[OGL LOG] matrix not stored update host matrix
[OGL LOG] update_host_mtx : 44 ms
[OGL LOG] matrix is not yet sorted, sorting host matrix
[OGL LOG] sort_host_mtx_sparsity_pattern : 71 ms
[OGL LOG] sort_host_mtx : 35 ms
[OGL LOG] init_preconditioner : 0 ms
 CG create  precond 
[OGL LOG] solve : 5369 ms
BJompGKOCG:  Solving for p, Initial residual = 0.0665251, Final residual = 9.93964e-05, No Iterations 183
linear solve p 5655587
time step continuity errors : sum local = 4.35824e-08, global = 2.93135e-20, cumulative = 8.21066e-20
ExecutionTime = 172 s  ClockTime = 172 s

Time = 0.009

Courant Number mean: 0.0974484 max: 0.654263
DILUPBiCGStab:  Solving for Ux, Initial residual = 0.00810224, Final residual = 5.39981e-06, No Iterations 5
DILUPBiCGStab:  Solving for Uy, Initial residual = 0.0188558, Final residual = 1.31747e-05, No Iterations 5
DILUPBiCGStab:  Solving for Uz, Initial residual = 0.0361132, Final residual = 4.39439e-05, No Iterations 5
linear solve U 316082
[OGL LOG] init_host_sparsity_pattern : 91 ms
[OGL LOG] matrix not stored update host matrix
[OGL LOG] update_host_mtx : 44 ms
[OGL LOG] matrix is not yet sorted, sorting host matrix
[OGL LOG] sort_host_mtx_sparsity_pattern : 74 ms
[OGL LOG] sort_host_mtx : 34 ms
[OGL LOG] init_preconditioner : 0 ms
 CG create  precond 
[OGL LOG] solve : 5364 ms
BJompGKOCG:  Solving for p, Initial residual = 0.0584234, Final residual = 9.69119e-05, No Iterations 183
linear solve p 5653184
time step continuity errors : sum local = 4.17354e-08, global = -2.40567e-20, cumulative = 5.80499e-20
[OGL LOG] init_host_sparsity_pattern : 92 ms
[OGL LOG] matrix not stored update host matrix
[OGL LOG] update_host_mtx : 53 ms
[OGL LOG] matrix is not yet sorted, sorting host matrix
[OGL LOG] sort_host_mtx_sparsity_pattern : 70 ms
[OGL LOG] sort_host_mtx : 35 ms
[OGL LOG] init_preconditioner : 0 ms
 CG create  precond 
[OGL LOG] solve : 5339 ms
BJompGKOCG:  Solving for p, Initial residual = 0.048739, Final residual = 9.36979e-05, No Iterations 181
linear solve p 5635919
time step continuity errors : sum local = 3.7862e-08, global = 1.32486e-20, cumulative = 7.12985e-20
ExecutionTime = 183.76 s  ClockTime = 184 s

Time = 0.01

Courant Number mean: 0.100691 max: 0.656135
DILUPBiCGStab:  Solving for Ux, Initial residual = 0.0069496, Final residual = 4.37993e-06, No Iterations 5
DILUPBiCGStab:  Solving for Uy, Initial residual = 0.0160994, Final residual = 6.7309e-06, No Iterations 5
DILUPBiCGStab:  Solving for Uz, Initial residual = 0.0319673, Final residual = 3.22178e-05, No Iterations 5
linear solve U 314300
[OGL LOG] init_host_sparsity_pattern : 93 ms
[OGL LOG] matrix not stored update host matrix
[OGL LOG] update_host_mtx : 50 ms
[OGL LOG] matrix is not yet sorted, sorting host matrix
[OGL LOG] sort_host_mtx_sparsity_pattern : 70 ms
[OGL LOG] sort_host_mtx : 34 ms
[OGL LOG] init_preconditioner : 0 ms
 CG create  precond 
[OGL LOG] solve : 11363 ms
BJompGKOCG:  Solving for p, Initial residual = 0.0395101, Final residual = 9.13195e-05, No Iterations 389
linear solve p 11657117
time step continuity errors : sum local = 3.65428e-08, global = 3.2609e-21, cumulative = 7.45594e-20
[OGL LOG] init_host_sparsity_pattern : 94 ms
[OGL LOG] matrix not stored update host matrix
[OGL LOG] update_host_mtx : 50 ms
[OGL LOG] matrix is not yet sorted, sorting host matrix
[OGL LOG] sort_host_mtx_sparsity_pattern : 71 ms
[OGL LOG] sort_host_mtx : 34 ms
[OGL LOG] init_preconditioner : 0 ms
 CG create  precond 
[OGL LOG] solve : 11343 ms
BJompGKOCG:  Solving for p, Initial residual = 0.0332935, Final residual = 9.02633e-05, No Iterations 388
linear solve p 11639530
time step continuity errors : sum local = 3.61468e-08, global = -1.93731e-20, cumulative = 5.51863e-20
ExecutionTime = 207.5 s  ClockTime = 208 s

End

