/*---------------------------------------------------------------------------*\
  =========                 |
  \\      /  F ield         | OpenFOAM: The Open Source CFD Toolbox
   \\    /   O peration     | Website:  https://openfoam.org
    \\  /    A nd           | Version:  8
     \\/     M anipulation  |
\*---------------------------------------------------------------------------*/
Build  : 8-ef60d22ea792
Exec   : icoFoam
Date   : Jul 29 2021
Time   : 02:40:19
Host   : "uc2n489.localdomain"
PID    : 3409253
I/O    : uncollated
Case   : /pfs/data5/home/kit/scc/nq7776/code/OBR/lidDrivenCavity3D/Variation_mesh/75/Variation_matrix_solver/CG_BJ_CUDA/base
nProcs : 1
sigFpe : Enabling floating point exception trapping (FOAM_SIGFPE).
fileModificationChecking : Monitoring run-time modified files using timeStampMaster (fileModificationSkew 10)
allowSystemOperations : Allowing user-supplied system call operations

// * * * * * * * * * * * * * * * * * * * * * * * * * * * * * * * * * * * * * //
Create time

Create mesh for time = 0

Reading transportProperties

Reading field p

Reading field U

Reading/calculating face flux field phi


Starting time loop

Time = 0.001

Courant Number mean: 0 max: 0
DILUPBiCGStab:  Solving for Ux, Initial residual = 1, Final residual = 0.00209367, No Iterations 5
DILUPBiCGStab:  Solving for Uy:  solution singularity
DILUPBiCGStab:  Solving for Uz:  solution singularity
linear solve U 204090
[OGL LOG] init_host_sparsity_pattern : 122 ms
[OGL LOG] matrix not stored update host matrix
[OGL LOG] update_host_mtx : 62 ms
[OGL LOG] matrix is not yet sorted, compute sorting idxs
[OGL LOG] compute_sort : 3686 ms
[OGL LOG] matrix is not yet sorted, sorting host matrix
[OGL LOG] sort_host_mtx_sparsity_pattern : 84 ms
[OGL LOG] sort_host_mtx : 48 ms
[OGL LOG] init_preconditioner : 45 ms
 CG create  precond 
[OGL LOG] solve : 366 ms
BJcudaGKOCG:  Solving for p, Initial residual = 1, Final residual = 9.88733e-05, No Iterations 500
linear solve p 5182124
time step continuity errors : sum local = 5.8119e-08, global = -2.11704e-21, cumulative = -2.11704e-21
[OGL LOG] init_host_sparsity_pattern : 116 ms
[OGL LOG] matrix not stored update host matrix
[OGL LOG] update_host_mtx : 62 ms
[OGL LOG] matrix is not yet sorted, sorting host matrix
[OGL LOG] sort_host_mtx_sparsity_pattern : 86 ms
[OGL LOG] sort_host_mtx : 43 ms
[OGL LOG] init_preconditioner : 0 ms
 CG create  precond 
[OGL LOG] solve : 349 ms
BJcudaGKOCG:  Solving for p, Initial residual = 0.735624, Final residual = 9.91496e-05, No Iterations 482
linear solve p 683529
time step continuity errors : sum local = 7.65922e-08, global = 4.85792e-22, cumulative = -1.63125e-21
ExecutionTime = 7.82 s  ClockTime = 8 s

Time = 0.002

Courant Number mean: 0.0422934 max: 0.566001
DILUPBiCGStab:  Solving for Ux, Initial residual = 0.148658, Final residual = 0.000720405, No Iterations 5
DILUPBiCGStab:  Solving for Uy, Initial residual = 0.373403, Final residual = 0.00156876, No Iterations 5
DILUPBiCGStab:  Solving for Uz, Initial residual = 0.986124, Final residual = 0.00479755, No Iterations 5
linear solve U 400144
[OGL LOG] init_host_sparsity_pattern : 114 ms
[OGL LOG] matrix not stored update host matrix
[OGL LOG] update_host_mtx : 54 ms
[OGL LOG] matrix is not yet sorted, sorting host matrix
[OGL LOG] sort_host_mtx_sparsity_pattern : 81 ms
[OGL LOG] sort_host_mtx : 43 ms
[OGL LOG] init_preconditioner : 0 ms
 CG create  precond 
[OGL LOG] solve : 343 ms
BJcudaGKOCG:  Solving for p, Initial residual = 0.699689, Final residual = 9.40218e-05, No Iterations 474
linear solve p 660825
time step continuity errors : sum local = 8.25099e-08, global = -9.81335e-21, cumulative = -1.14446e-20
[OGL LOG] init_host_sparsity_pattern : 114 ms
[OGL LOG] matrix not stored update host matrix
[OGL LOG] update_host_mtx : 54 ms
[OGL LOG] matrix is not yet sorted, sorting host matrix
[OGL LOG] sort_host_mtx_sparsity_pattern : 78 ms
[OGL LOG] sort_host_mtx : 43 ms
[OGL LOG] init_preconditioner : 0 ms
 CG create  precond 
[OGL LOG] solve : 339 ms
BJcudaGKOCG:  Solving for p, Initial residual = 0.630563, Final residual = 9.78172e-05, No Iterations 472
linear solve p 655191
time step continuity errors : sum local = 8.77039e-08, global = 7.25769e-21, cumulative = -4.1869e-21
ExecutionTime = 9.78 s  ClockTime = 10 s

Time = 0.003

Courant Number mean: 0.063525 max: 0.668454
DILUPBiCGStab:  Solving for Ux, Initial residual = 0.0539125, Final residual = 0.000213874, No Iterations 5
DILUPBiCGStab:  Solving for Uy, Initial residual = 0.130271, Final residual = 0.000491817, No Iterations 5
DILUPBiCGStab:  Solving for Uz, Initial residual = 0.610601, Final residual = 0.00276801, No Iterations 5
linear solve U 406910
[OGL LOG] init_host_sparsity_pattern : 114 ms
[OGL LOG] matrix not stored update host matrix
[OGL LOG] update_host_mtx : 54 ms
[OGL LOG] matrix is not yet sorted, sorting host matrix
[OGL LOG] sort_host_mtx_sparsity_pattern : 78 ms
[OGL LOG] sort_host_mtx : 43 ms
[OGL LOG] init_preconditioner : 0 ms
 CG create  precond 
[OGL LOG] solve : 336 ms
BJcudaGKOCG:  Solving for p, Initial residual = 0.658889, Final residual = 9.46749e-05, No Iterations 468
linear solve p 652143
time step continuity errors : sum local = 6.19187e-08, global = 2.25035e-20, cumulative = 1.83166e-20
[OGL LOG] init_host_sparsity_pattern : 114 ms
[OGL LOG] matrix not stored update host matrix
[OGL LOG] update_host_mtx : 54 ms
[OGL LOG] matrix is not yet sorted, sorting host matrix
[OGL LOG] sort_host_mtx_sparsity_pattern : 78 ms
[OGL LOG] sort_host_mtx : 43 ms
[OGL LOG] init_preconditioner : 0 ms
 CG create  precond 
[OGL LOG] solve : 337 ms
BJcudaGKOCG:  Solving for p, Initial residual = 0.614146, Final residual = 9.35863e-05, No Iterations 467
linear solve p 653569
time step continuity errors : sum local = 5.94099e-08, global = 9.56633e-21, cumulative = 2.78829e-20
ExecutionTime = 11.74 s  ClockTime = 12 s

Time = 0.004

Courant Number mean: 0.074521 max: 0.679255
DILUPBiCGStab:  Solving for Ux, Initial residual = 0.0288363, Final residual = 0.0001054, No Iterations 5
DILUPBiCGStab:  Solving for Uy, Initial residual = 0.0884832, Final residual = 0.000296661, No Iterations 5
DILUPBiCGStab:  Solving for Uz, Initial residual = 0.323559, Final residual = 0.00117527, No Iterations 5
linear solve U 399139
[OGL LOG] init_host_sparsity_pattern : 116 ms
[OGL LOG] matrix not stored update host matrix
[OGL LOG] update_host_mtx : 58 ms
[OGL LOG] matrix is not yet sorted, sorting host matrix
[OGL LOG] sort_host_mtx_sparsity_pattern : 82 ms
[OGL LOG] sort_host_mtx : 43 ms
[OGL LOG] init_preconditioner : 0 ms
 CG create  precond 
[OGL LOG] solve : 333 ms
BJcudaGKOCG:  Solving for p, Initial residual = 0.457162, Final residual = 9.69053e-05, No Iterations 464
linear solve p 658688
time step continuity errors : sum local = 5.40885e-08, global = -8.63685e-21, cumulative = 1.92461e-20
[OGL LOG] init_host_sparsity_pattern : 114 ms
[OGL LOG] matrix not stored update host matrix
[OGL LOG] update_host_mtx : 57 ms
[OGL LOG] matrix is not yet sorted, sorting host matrix
[OGL LOG] sort_host_mtx_sparsity_pattern : 81 ms
[OGL LOG] sort_host_mtx : 43 ms
[OGL LOG] init_preconditioner : 0 ms
 CG create  precond 
[OGL LOG] solve : 331 ms
BJcudaGKOCG:  Solving for p, Initial residual = 0.393365, Final residual = 9.83066e-05, No Iterations 461
linear solve p 657218
time step continuity errors : sum local = 5.5565e-08, global = 8.08766e-21, cumulative = 2.73337e-20
ExecutionTime = 13.7 s  ClockTime = 14 s

Time = 0.005

Courant Number mean: 0.0833976 max: 0.689394
DILUPBiCGStab:  Solving for Ux, Initial residual = 0.0210209, Final residual = 6.37587e-05, No Iterations 5
DILUPBiCGStab:  Solving for Uy, Initial residual = 0.0480525, Final residual = 0.000107456, No Iterations 5
DILUPBiCGStab:  Solving for Uz, Initial residual = 0.123855, Final residual = 0.000602354, No Iterations 5
linear solve U 400066
[OGL LOG] init_host_sparsity_pattern : 114 ms
[OGL LOG] matrix not stored update host matrix
[OGL LOG] update_host_mtx : 54 ms
[OGL LOG] matrix is not yet sorted, sorting host matrix
[OGL LOG] sort_host_mtx_sparsity_pattern : 78 ms
[OGL LOG] sort_host_mtx : 43 ms
[OGL LOG] init_preconditioner : 0 ms
 CG create  precond 
[OGL LOG] solve : 328 ms
BJcudaGKOCG:  Solving for p, Initial residual = 0.373662, Final residual = 9.49516e-05, No Iterations 454
linear solve p 642948
time step continuity errors : sum local = 4.26899e-08, global = -1.53837e-20, cumulative = 1.195e-20
[OGL LOG] init_host_sparsity_pattern : 114 ms
[OGL LOG] matrix not stored update host matrix
[OGL LOG] update_host_mtx : 54 ms
[OGL LOG] matrix is not yet sorted, sorting host matrix
[OGL LOG] sort_host_mtx_sparsity_pattern : 78 ms
[OGL LOG] sort_host_mtx : 43 ms
[OGL LOG] init_preconditioner : 0 ms
 CG create  precond 
[OGL LOG] solve : 322 ms
BJcudaGKOCG:  Solving for p, Initial residual = 0.324821, Final residual = 9.89315e-05, No Iterations 449
linear solve p 636960
time step continuity errors : sum local = 4.40772e-08, global = 6.42084e-21, cumulative = 1.83708e-20
ExecutionTime = 15.62 s  ClockTime = 16 s

Time = 0.006

Courant Number mean: 0.0901389 max: 0.695124
DILUPBiCGStab:  Solving for Ux, Initial residual = 0.0146315, Final residual = 3.89586e-05, No Iterations 5
DILUPBiCGStab:  Solving for Uy, Initial residual = 0.0378474, Final residual = 8.06888e-05, No Iterations 5
DILUPBiCGStab:  Solving for Uz, Initial residual = 0.102506, Final residual = 0.000381626, No Iterations 5
linear solve U 402222
[OGL LOG] init_host_sparsity_pattern : 114 ms
[OGL LOG] matrix not stored update host matrix
[OGL LOG] update_host_mtx : 54 ms
[OGL LOG] matrix is not yet sorted, sorting host matrix
[OGL LOG] sort_host_mtx_sparsity_pattern : 82 ms
[OGL LOG] sort_host_mtx : 43 ms
[OGL LOG] init_preconditioner : 0 ms
 CG create  precond 
[OGL LOG] solve : 162 ms
BJcudaGKOCG:  Solving for p, Initial residual = 0.240239, Final residual = 9.86994e-05, No Iterations 222
linear solve p 483314
time step continuity errors : sum local = 5.00306e-08, global = -7.83008e-21, cumulative = 1.05408e-20
[OGL LOG] init_host_sparsity_pattern : 114 ms
[OGL LOG] matrix not stored update host matrix
[OGL LOG] update_host_mtx : 54 ms
[OGL LOG] matrix is not yet sorted, sorting host matrix
[OGL LOG] sort_host_mtx_sparsity_pattern : 78 ms
[OGL LOG] sort_host_mtx : 43 ms
[OGL LOG] init_preconditioner : 0 ms
 CG create  precond 
[OGL LOG] solve : 158 ms
BJcudaGKOCG:  Solving for p, Initial residual = 0.201948, Final residual = 9.80446e-05, No Iterations 217
linear solve p 473535
time step continuity errors : sum local = 4.47759e-08, global = -1.26606e-20, cumulative = -2.11988e-21
ExecutionTime = 17.22 s  ClockTime = 17 s

Time = 0.007

Courant Number mean: 0.0957224 max: 0.698933
DILUPBiCGStab:  Solving for Ux, Initial residual = 0.0117978, Final residual = 2.48938e-05, No Iterations 5
DILUPBiCGStab:  Solving for Uy, Initial residual = 0.0277972, Final residual = 4.64372e-05, No Iterations 5
DILUPBiCGStab:  Solving for Uz, Initial residual = 0.056002, Final residual = 0.000135748, No Iterations 5
linear solve U 398766
[OGL LOG] init_host_sparsity_pattern : 114 ms
[OGL LOG] matrix not stored update host matrix
[OGL LOG] update_host_mtx : 54 ms
[OGL LOG] matrix is not yet sorted, sorting host matrix
[OGL LOG] sort_host_mtx_sparsity_pattern : 78 ms
[OGL LOG] sort_host_mtx : 54 ms
[OGL LOG] init_preconditioner : 0 ms
 CG create  precond 
[OGL LOG] solve : 153 ms
BJcudaGKOCG:  Solving for p, Initial residual = 0.179843, Final residual = 9.9705e-05, No Iterations 211
linear solve p 482476
time step continuity errors : sum local = 4.12877e-08, global = -4.33908e-21, cumulative = -6.45895e-21
[OGL LOG] init_host_sparsity_pattern : 116 ms
[OGL LOG] matrix not stored update host matrix
[OGL LOG] update_host_mtx : 54 ms
[OGL LOG] matrix is not yet sorted, sorting host matrix
[OGL LOG] sort_host_mtx_sparsity_pattern : 78 ms
[OGL LOG] sort_host_mtx : 43 ms
[OGL LOG] init_preconditioner : 0 ms
 CG create  precond 
[OGL LOG] solve : 153 ms
BJcudaGKOCG:  Solving for p, Initial residual = 0.151845, Final residual = 9.61999e-05, No Iterations 210
linear solve p 471454
time step continuity errors : sum local = 3.88453e-08, global = 8.34704e-21, cumulative = 1.88809e-21
ExecutionTime = 18.82 s  ClockTime = 19 s

Time = 0.008

Courant Number mean: 0.100393 max: 0.702022
DILUPBiCGStab:  Solving for Ux, Initial residual = 0.00946236, Final residual = 1.82498e-05, No Iterations 5
DILUPBiCGStab:  Solving for Uy, Initial residual = 0.0229709, Final residual = 3.19881e-05, No Iterations 5
DILUPBiCGStab:  Solving for Uz, Initial residual = 0.0501115, Final residual = 0.000136389, No Iterations 5
linear solve U 399588
[OGL LOG] init_host_sparsity_pattern : 114 ms
[OGL LOG] matrix not stored update host matrix
[OGL LOG] update_host_mtx : 54 ms
[OGL LOG] matrix is not yet sorted, sorting host matrix
[OGL LOG] sort_host_mtx_sparsity_pattern : 78 ms
[OGL LOG] sort_host_mtx : 43 ms
[OGL LOG] init_preconditioner : 0 ms
 CG create  precond 
[OGL LOG] solve : 152 ms
BJcudaGKOCG:  Solving for p, Initial residual = 0.120834, Final residual = 9.56129e-05, No Iterations 210
linear solve p 468515
time step continuity errors : sum local = 4.67653e-08, global = 8.33095e-21, cumulative = 1.0219e-20
[OGL LOG] init_host_sparsity_pattern : 116 ms
[OGL LOG] matrix not stored update host matrix
[OGL LOG] update_host_mtx : 55 ms
[OGL LOG] matrix is not yet sorted, sorting host matrix
[OGL LOG] sort_host_mtx_sparsity_pattern : 81 ms
[OGL LOG] sort_host_mtx : 43 ms
[OGL LOG] init_preconditioner : 0 ms
 CG create  precond 
[OGL LOG] solve : 148 ms
BJcudaGKOCG:  Solving for p, Initial residual = 0.100397, Final residual = 9.38791e-05, No Iterations 203
linear solve p 472952
time step continuity errors : sum local = 4.00958e-08, global = -5.57113e-21, cumulative = 4.64791e-21
ExecutionTime = 20.4 s  ClockTime = 21 s

Time = 0.009

Courant Number mean: 0.104394 max: 0.704236
DILUPBiCGStab:  Solving for Ux, Initial residual = 0.00790537, Final residual = 1.11876e-05, No Iterations 5
DILUPBiCGStab:  Solving for Uy, Initial residual = 0.0190345, Final residual = 2.60425e-05, No Iterations 5
DILUPBiCGStab:  Solving for Uz, Initial residual = 0.0372804, Final residual = 8.14105e-05, No Iterations 5
linear solve U 399709
[OGL LOG] init_host_sparsity_pattern : 114 ms
[OGL LOG] matrix not stored update host matrix
[OGL LOG] update_host_mtx : 55 ms
[OGL LOG] matrix is not yet sorted, sorting host matrix
[OGL LOG] sort_host_mtx_sparsity_pattern : 78 ms
[OGL LOG] sort_host_mtx : 43 ms
[OGL LOG] init_preconditioner : 0 ms
 CG create  precond 
[OGL LOG] solve : 152 ms
BJcudaGKOCG:  Solving for p, Initial residual = 0.0897756, Final residual = 9.45479e-05, No Iterations 209
linear solve p 468458
time step continuity errors : sum local = 4.21218e-08, global = -2.07054e-20, cumulative = -1.60575e-20
[OGL LOG] init_host_sparsity_pattern : 114 ms
[OGL LOG] matrix not stored update host matrix
[OGL LOG] update_host_mtx : 54 ms
[OGL LOG] matrix is not yet sorted, sorting host matrix
[OGL LOG] sort_host_mtx_sparsity_pattern : 78 ms
[OGL LOG] sort_host_mtx : 42 ms
[OGL LOG] init_preconditioner : 0 ms
 CG create  precond 
[OGL LOG] solve : 149 ms
BJcudaGKOCG:  Solving for p, Initial residual = 0.0750757, Final residual = 9.74945e-05, No Iterations 201
linear solve p 464138
time step continuity errors : sum local = 3.87554e-08, global = 6.24998e-21, cumulative = -9.80754e-21
ExecutionTime = 21.99 s  ClockTime = 22 s

Time = 0.01

Courant Number mean: 0.107876 max: 0.706139
DILUPBiCGStab:  Solving for Ux, Initial residual = 0.00676166, Final residual = 8.87845e-06, No Iterations 5
DILUPBiCGStab:  Solving for Uy, Initial residual = 0.0162345, Final residual = 1.44398e-05, No Iterations 5
DILUPBiCGStab:  Solving for Uz, Initial residual = 0.0342733, Final residual = 6.92458e-05, No Iterations 5
linear solve U 399697
[OGL LOG] init_host_sparsity_pattern : 114 ms
[OGL LOG] matrix not stored update host matrix
[OGL LOG] update_host_mtx : 54 ms
[OGL LOG] matrix is not yet sorted, sorting host matrix
[OGL LOG] sort_host_mtx_sparsity_pattern : 78 ms
[OGL LOG] sort_host_mtx : 43 ms
[OGL LOG] init_preconditioner : 0 ms
 CG create  precond 
[OGL LOG] solve : 303 ms
BJcudaGKOCG:  Solving for p, Initial residual = 0.0619314, Final residual = 9.55989e-05, No Iterations 422
linear solve p 618852
time step continuity errors : sum local = 3.64279e-08, global = 8.59418e-21, cumulative = -1.21336e-21
[OGL LOG] init_host_sparsity_pattern : 114 ms
[OGL LOG] matrix not stored update host matrix
[OGL LOG] update_host_mtx : 54 ms
[OGL LOG] matrix is not yet sorted, sorting host matrix
[OGL LOG] sort_host_mtx_sparsity_pattern : 78 ms
[OGL LOG] sort_host_mtx : 43 ms
[OGL LOG] init_preconditioner : 0 ms
 CG create  precond 
[OGL LOG] solve : 304 ms
BJcudaGKOCG:  Solving for p, Initial residual = 0.0515259, Final residual = 9.71327e-05, No Iterations 420
linear solve p 619742
time step continuity errors : sum local = 3.70217e-08, global = -1.36708e-20, cumulative = -1.48842e-20
ExecutionTime = 23.86 s  ClockTime = 24 s

End

