/*---------------------------------------------------------------------------*\
  =========                 |
  \\      /  F ield         | OpenFOAM: The Open Source CFD Toolbox
   \\    /   O peration     | Website:  https://openfoam.org
    \\  /    A nd           | Version:  8
     \\/     M anipulation  |
\*---------------------------------------------------------------------------*/
Build  : 8-ef60d22ea792
Exec   : icoFoam
Date   : Jul 29 2021
Time   : 00:13:24
Host   : "uc2n420.localdomain"
PID    : 985177
I/O    : uncollated
Case   : /pfs/data5/home/kit/scc/nq7776/code/OBR/lidDrivenCavity3D/Variation_mesh/30/Variation_matrix_solver/BiCGStab_DIC_Serial/base
nProcs : 1
sigFpe : Enabling floating point exception trapping (FOAM_SIGFPE).
fileModificationChecking : Monitoring run-time modified files using timeStampMaster (fileModificationSkew 10)
allowSystemOperations : Allowing user-supplied system call operations

// * * * * * * * * * * * * * * * * * * * * * * * * * * * * * * * * * * * * * //
Create time

Create mesh for time = 0

Reading transportProperties

Reading field p

Reading field U

Reading/calculating face flux field phi


Starting time loop

Time = 0.001

Courant Number mean: 0 max: 0
DILUPBiCGStab:  Solving for Ux, Initial residual = 1, Final residual = 2.30612e-07, No Iterations 5
DILUPBiCGStab:  Solving for Uy:  solution singularity
DILUPBiCGStab:  Solving for Uz:  solution singularity
linear solve U 10558
DICPBiCGStab:  Solving for p, Initial residual = 1, Final residual = 5.34745e-05, No Iterations 55
linear solve p 55379
time step continuity errors : sum local = 3.35932e-08, global = 3.93821e-21, cumulative = 3.93821e-21
DICPBiCGStab:  Solving for p, Initial residual = 0.533733, Final residual = 9.62609e-05, No Iterations 55
linear solve p 54214
time step continuity errors : sum local = 1.57201e-07, global = -2.33591e-21, cumulative = 1.6023e-21
ExecutionTime = 0.27 s  ClockTime = 0 s

Time = 0.002

Courant Number mean: 0.0151364 max: 0.148265
DILUPBiCGStab:  Solving for Ux, Initial residual = 0.196064, Final residual = 3.64391e-08, No Iterations 5
DILUPBiCGStab:  Solving for Uy, Initial residual = 0.280341, Final residual = 4.07906e-08, No Iterations 5
DILUPBiCGStab:  Solving for Uz, Initial residual = 0.913886, Final residual = 1.54634e-07, No Iterations 5
linear solve U 18600
DICPBiCGStab:  Solving for p, Initial residual = 0.353157, Final residual = 5.2687e-05, No Iterations 55
linear solve p 54082
time step continuity errors : sum local = 7.06813e-08, global = 6.97582e-21, cumulative = 8.57812e-21
DICPBiCGStab:  Solving for p, Initial residual = 0.254108, Final residual = 6.54707e-05, No Iterations 50
linear solve p 49112
time step continuity errors : sum local = 1.08399e-07, global = 5.39115e-21, cumulative = 1.39693e-20
ExecutionTime = 0.4 s  ClockTime = 0 s

Time = 0.003

Courant Number mean: 0.0235112 max: 0.204198
DILUPBiCGStab:  Solving for Ux, Initial residual = 0.079666, Final residual = 1.29643e-08, No Iterations 5
DILUPBiCGStab:  Solving for Uy, Initial residual = 0.116189, Final residual = 1.13721e-08, No Iterations 5
DILUPBiCGStab:  Solving for Uz, Initial residual = 0.207432, Final residual = 3.55814e-08, No Iterations 5
linear solve U 18563
DICPBiCGStab:  Solving for p, Initial residual = 0.112613, Final residual = 9.66137e-05, No Iterations 49
linear solve p 48323
time step continuity errors : sum local = 1.07357e-07, global = -1.00331e-20, cumulative = 3.93619e-21
DICPBiCGStab:  Solving for p, Initial residual = 0.0834103, Final residual = 7.21075e-05, No Iterations 50
linear solve p 49846
time step continuity errors : sum local = 9.5738e-08, global = -3.85387e-20, cumulative = -3.46025e-20
ExecutionTime = 0.54 s  ClockTime = 0 s

Time = 0.004

Courant Number mean: 0.028642 max: 0.226395
DILUPBiCGStab:  Solving for Ux, Initial residual = 0.0459829, Final residual = 6.37643e-09, No Iterations 5
DILUPBiCGStab:  Solving for Uy, Initial residual = 0.0701743, Final residual = 4.33479e-09, No Iterations 5
DILUPBiCGStab:  Solving for Uz, Initial residual = 0.11956, Final residual = 1.60319e-08, No Iterations 5
linear solve U 18626
DICPBiCGStab:  Solving for p, Initial residual = 0.0576665, Final residual = 9.823e-05, No Iterations 23
linear solve p 23263
time step continuity errors : sum local = 1.33659e-07, global = -7.7741e-21, cumulative = -4.23766e-20
DICPBiCGStab:  Solving for p, Initial residual = 0.0423439, Final residual = 9.29645e-05, No Iterations 22
linear solve p 21749
time step continuity errors : sum local = 1.35606e-07, global = 2.91291e-20, cumulative = -1.32475e-20
ExecutionTime = 0.61 s  ClockTime = 0 s

Time = 0.005

Courant Number mean: 0.0323425 max: 0.237404
DILUPBiCGStab:  Solving for Ux, Initial residual = 0.0314275, Final residual = 2.99157e-09, No Iterations 5
DILUPBiCGStab:  Solving for Uy, Initial residual = 0.0482322, Final residual = 2.41986e-09, No Iterations 5
DILUPBiCGStab:  Solving for Uz, Initial residual = 0.0807704, Final residual = 8.19594e-09, No Iterations 5
linear solve U 18585
DICPBiCGStab:  Solving for p, Initial residual = 0.0355915, Final residual = 9.91921e-05, No Iterations 20
linear solve p 19825
time step continuity errors : sum local = 1.06642e-07, global = 1.28652e-21, cumulative = -1.1961e-20
DICPBiCGStab:  Solving for p, Initial residual = 0.0264174, Final residual = 9.421e-05, No Iterations 20
linear solve p 19883
time step continuity errors : sum local = 1.24694e-07, global = -1.94155e-21, cumulative = -1.39025e-20
ExecutionTime = 0.68 s  ClockTime = 0 s

Time = 0.006

Courant Number mean: 0.0352085 max: 0.243905
DILUPBiCGStab:  Solving for Ux, Initial residual = 0.0234711, Final residual = 1.11544e-09, No Iterations 5
DILUPBiCGStab:  Solving for Uy, Initial residual = 0.0364617, Final residual = 1.59079e-09, No Iterations 5
DILUPBiCGStab:  Solving for Uz, Initial residual = 0.0636509, Final residual = 5.58931e-09, No Iterations 5
linear solve U 18478
DICPBiCGStab:  Solving for p, Initial residual = 0.0255681, Final residual = 8.28959e-05, No Iterations 20
linear solve p 19759
time step continuity errors : sum local = 1.02889e-07, global = 8.12136e-21, cumulative = -5.78117e-21
DICPBiCGStab:  Solving for p, Initial residual = 0.0190914, Final residual = 9.97327e-05, No Iterations 19
linear solve p 18843
time step continuity errors : sum local = 1.25466e-07, global = 2.55397e-21, cumulative = -3.2272e-21
ExecutionTime = 0.75 s  ClockTime = 1 s

Time = 0.007

Courant Number mean: 0.0375049 max: 0.24826
DILUPBiCGStab:  Solving for Ux, Initial residual = 0.0185204, Final residual = 5.58414e-10, No Iterations 5
DILUPBiCGStab:  Solving for Uy, Initial residual = 0.0290026, Final residual = 1.14288e-09, No Iterations 5
DILUPBiCGStab:  Solving for Uz, Initial residual = 0.0525537, Final residual = 3.6713e-09, No Iterations 5
linear solve U 18730
DICPBiCGStab:  Solving for p, Initial residual = 0.0198473, Final residual = 7.37957e-05, No Iterations 20
linear solve p 20344
time step continuity errors : sum local = 9.29436e-08, global = -1.53959e-21, cumulative = -4.76679e-21
DICPBiCGStab:  Solving for p, Initial residual = 0.0149354, Final residual = 8.71287e-05, No Iterations 19
linear solve p 18871
time step continuity errors : sum local = 1.11404e-07, global = 7.50966e-21, cumulative = 2.74288e-21
ExecutionTime = 0.82 s  ClockTime = 1 s

Time = 0.008

Courant Number mean: 0.0393973 max: 0.251424
DILUPBiCGStab:  Solving for Ux, Initial residual = 0.0150977, Final residual = 3.46202e-10, No Iterations 5
DILUPBiCGStab:  Solving for Uy, Initial residual = 0.0238781, Final residual = 8.31977e-10, No Iterations 5
DILUPBiCGStab:  Solving for Uz, Initial residual = 0.0444009, Final residual = 2.38564e-09, No Iterations 5
linear solve U 18431
DICPBiCGStab:  Solving for p, Initial residual = 0.0159637, Final residual = 9.9496e-05, No Iterations 19
linear solve p 18881
time step continuity errors : sum local = 1.1176e-07, global = -1.95291e-20, cumulative = -1.67862e-20
DICPBiCGStab:  Solving for p, Initial residual = 0.0121164, Final residual = 7.81274e-05, No Iterations 19
linear solve p 18837
time step continuity errors : sum local = 1.01115e-07, global = 9.00965e-21, cumulative = -7.77659e-21
ExecutionTime = 0.89 s  ClockTime = 1 s

Time = 0.009

Courant Number mean: 0.0410395 max: 0.253855
DILUPBiCGStab:  Solving for Ux, Initial residual = 0.0126426, Final residual = 2.44799e-10, No Iterations 5
DILUPBiCGStab:  Solving for Uy, Initial residual = 0.0201433, Final residual = 6.23827e-10, No Iterations 5
DILUPBiCGStab:  Solving for Uz, Initial residual = 0.0382351, Final residual = 1.56578e-09, No Iterations 5
linear solve U 18664
DICPBiCGStab:  Solving for p, Initial residual = 0.0133394, Final residual = 8.92268e-05, No Iterations 19
linear solve p 18854
time step continuity errors : sum local = 1.02436e-07, global = 5.95337e-21, cumulative = -1.82321e-21
DICPBiCGStab:  Solving for p, Initial residual = 0.0101713, Final residual = 7.06793e-05, No Iterations 19
linear solve p 18948
time step continuity errors : sum local = 9.24666e-08, global = 2.54062e-20, cumulative = 2.3583e-20
ExecutionTime = 0.96 s  ClockTime = 1 s

Time = 0.01

Courant Number mean: 0.0424708 max: 0.255787
DILUPBiCGStab:  Solving for Ux, Initial residual = 0.010771, Final residual = 1.86354e-10, No Iterations 5
DILUPBiCGStab:  Solving for Uy, Initial residual = 0.0172802, Final residual = 4.81698e-10, No Iterations 5
DILUPBiCGStab:  Solving for Uz, Initial residual = 0.033283, Final residual = 1.07657e-09, No Iterations 5
linear solve U 18455
DICPBiCGStab:  Solving for p, Initial residual = 0.0112818, Final residual = 8.05805e-05, No Iterations 19
linear solve p 18917
time step continuity errors : sum local = 9.40882e-08, global = 1.98616e-21, cumulative = 2.55692e-20
DICPBiCGStab:  Solving for p, Initial residual = 0.00863316, Final residual = 9.80669e-05, No Iterations 18
linear solve p 18577
time step continuity errors : sum local = 1.11005e-07, global = 1.22859e-20, cumulative = 3.78551e-20
ExecutionTime = 1.03 s  ClockTime = 1 s

End

