/*---------------------------------------------------------------------------*\
  =========                 |
  \\      /  F ield         | OpenFOAM: The Open Source CFD Toolbox
   \\    /   O peration     | Website:  https://openfoam.org
    \\  /    A nd           | Version:  8
     \\/     M anipulation  |
\*---------------------------------------------------------------------------*/
Build  : 8-ef60d22ea792
Exec   : icoFoam
Date   : Jul 28 2021
Time   : 23:50:35
Host   : "uc2n414.localdomain"
PID    : 2836884
I/O    : uncollated
Case   : /pfs/data5/home/kit/scc/nq7776/code/OBR/lidDrivenCavity3D/Variation_mesh/75/Variation_matrix_solver/BiCGStab_NoPrecond_OMP/base
nProcs : 1
sigFpe : Enabling floating point exception trapping (FOAM_SIGFPE).
fileModificationChecking : Monitoring run-time modified files using timeStampMaster (fileModificationSkew 10)
allowSystemOperations : Allowing user-supplied system call operations

// * * * * * * * * * * * * * * * * * * * * * * * * * * * * * * * * * * * * * //
Create time

Create mesh for time = 0

Reading transportProperties

Reading field p

Reading field U

Reading/calculating face flux field phi


Starting time loop

Time = 0.001

Courant Number mean: 0 max: 0
DILUPBiCGStab:  Solving for Ux, Initial residual = 1, Final residual = 0.00209367, No Iterations 5
DILUPBiCGStab:  Solving for Uy:  solution singularity
DILUPBiCGStab:  Solving for Uz:  solution singularity
linear solve U 196910
[OGL LOG] init_host_sparsity_pattern : 123 ms
[OGL LOG] matrix not stored update host matrix
[OGL LOG] update_host_mtx : 62 ms
[OGL LOG] matrix is not yet sorted, compute sorting idxs
[OGL LOG] compute_sort : 3627 ms
[OGL LOG] matrix is not yet sorted, sorting host matrix
[OGL LOG] sort_host_mtx_sparsity_pattern : 86 ms
[OGL LOG] sort_host_mtx : 51 ms
[OGL LOG] init_preconditioner : 0 ms
[OGL LOG] solve : 10934 ms
noneompGKOBiCGStab:  Solving for p, Initial residual = 1, Final residual = 7.09866e-05, No Iterations 451
linear solve p 14970608
time step continuity errors : sum local = 7.62078e-07, global = 8.00008e-21, cumulative = 8.00008e-21
[OGL LOG] init_host_sparsity_pattern : 115 ms
[OGL LOG] matrix not stored update host matrix
[OGL LOG] update_host_mtx : 61 ms
[OGL LOG] matrix is not yet sorted, sorting host matrix
[OGL LOG] sort_host_mtx_sparsity_pattern : 86 ms
[OGL LOG] sort_host_mtx : 42 ms
[OGL LOG] init_preconditioner : 0 ms
[OGL LOG] solve : 6423 ms
noneompGKOBiCGStab:  Solving for p, Initial residual = 0.737419, Final residual = 9.99821e-05, No Iterations 265
linear solve p 6780470
time step continuity errors : sum local = 1.53493e-07, global = 2.59721e-21, cumulative = 1.05973e-20
ExecutionTime = 23.65 s  ClockTime = 23 s

Time = 0.002

Courant Number mean: 0.0422952 max: 0.566
DILUPBiCGStab:  Solving for Ux, Initial residual = 0.149231, Final residual = 0.000722621, No Iterations 5
DILUPBiCGStab:  Solving for Uy, Initial residual = 0.3735, Final residual = 0.00156736, No Iterations 5
DILUPBiCGStab:  Solving for Uz, Initial residual = 0.979127, Final residual = 0.00507516, No Iterations 5
linear solve U 381699
[OGL LOG] init_host_sparsity_pattern : 111 ms
[OGL LOG] matrix not stored update host matrix
[OGL LOG] update_host_mtx : 54 ms
[OGL LOG] matrix is not yet sorted, sorting host matrix
[OGL LOG] sort_host_mtx_sparsity_pattern : 86 ms
[OGL LOG] sort_host_mtx : 42 ms
[OGL LOG] init_preconditioner : 0 ms
[OGL LOG] solve : 11666 ms
noneompGKOBiCGStab:  Solving for p, Initial residual = 0.701183, Final residual = 3.51996e-05, No Iterations 481
linear solve p 12014848
time step continuity errors : sum local = 3.27597e-07, global = 4.28872e-21, cumulative = 1.4886e-20
[OGL LOG] init_host_sparsity_pattern : 119 ms
[OGL LOG] matrix not stored update host matrix
[OGL LOG] update_host_mtx : 61 ms
[OGL LOG] matrix is not yet sorted, sorting host matrix
[OGL LOG] sort_host_mtx_sparsity_pattern : 86 ms
[OGL LOG] sort_host_mtx : 42 ms
[OGL LOG] init_preconditioner : 0 ms
[OGL LOG] solve : 11056 ms
noneompGKOBiCGStab:  Solving for p, Initial residual = 0.63132, Final residual = 8.10073e-05, No Iterations 456
linear solve p 11419936
time step continuity errors : sum local = 2.51053e-07, global = -3.77617e-21, cumulative = 1.11098e-20
ExecutionTime = 47.61 s  ClockTime = 48 s

Time = 0.003

Courant Number mean: 0.0635655 max: 0.668503
DILUPBiCGStab:  Solving for Ux, Initial residual = 0.0539472, Final residual = 0.000209247, No Iterations 5
DILUPBiCGStab:  Solving for Uy, Initial residual = 0.13244, Final residual = 0.000501581, No Iterations 5
DILUPBiCGStab:  Solving for Uz, Initial residual = 0.635317, Final residual = 0.00358035, No Iterations 5
linear solve U 383047
[OGL LOG] init_host_sparsity_pattern : 116 ms
[OGL LOG] matrix not stored update host matrix
[OGL LOG] update_host_mtx : 62 ms
[OGL LOG] matrix is not yet sorted, sorting host matrix
[OGL LOG] sort_host_mtx_sparsity_pattern : 86 ms
[OGL LOG] sort_host_mtx : 42 ms
[OGL LOG] init_preconditioner : 0 ms
[OGL LOG] solve : 10894 ms
noneompGKOBiCGStab:  Solving for p, Initial residual = 0.661835, Final residual = 2.92307e-05, No Iterations 450
linear solve p 11255134
time step continuity errors : sum local = 2.90421e-07, global = -1.16827e-20, cumulative = -5.72859e-22
[OGL LOG] init_host_sparsity_pattern : 120 ms
[OGL LOG] matrix not stored update host matrix
[OGL LOG] update_host_mtx : 62 ms
[OGL LOG] matrix is not yet sorted, sorting host matrix
[OGL LOG] sort_host_mtx_sparsity_pattern : 86 ms
[OGL LOG] sort_host_mtx : 42 ms
[OGL LOG] init_preconditioner : 0 ms
[OGL LOG] solve : 10389 ms
noneompGKOBiCGStab:  Solving for p, Initial residual = 0.615248, Final residual = 9.32833e-05, No Iterations 428
linear solve p 10753493
time step continuity errors : sum local = 1.23299e-07, global = -1.16748e-20, cumulative = -1.22477e-20
ExecutionTime = 70.15 s  ClockTime = 70 s

Time = 0.004

Courant Number mean: 0.0745519 max: 0.679315
DILUPBiCGStab:  Solving for Ux, Initial residual = 0.0293731, Final residual = 0.000107478, No Iterations 5
DILUPBiCGStab:  Solving for Uy, Initial residual = 0.0894896, Final residual = 0.000298749, No Iterations 5
DILUPBiCGStab:  Solving for Uz, Initial residual = 0.402755, Final residual = 0.00195542, No Iterations 5
linear solve U 384031
[OGL LOG] init_host_sparsity_pattern : 116 ms
[OGL LOG] matrix not stored update host matrix
[OGL LOG] update_host_mtx : 62 ms
[OGL LOG] matrix is not yet sorted, sorting host matrix
[OGL LOG] sort_host_mtx_sparsity_pattern : 86 ms
[OGL LOG] sort_host_mtx : 42 ms
[OGL LOG] init_preconditioner : 0 ms
[OGL LOG] solve : 11476 ms
noneompGKOBiCGStab:  Solving for p, Initial residual = 0.464101, Final residual = 7.5375e-05, No Iterations 473
linear solve p 11837351
time step continuity errors : sum local = 2.18671e-06, global = -3.01417e-20, cumulative = -4.23894e-20
[OGL LOG] init_host_sparsity_pattern : 120 ms
[OGL LOG] matrix not stored update host matrix
[OGL LOG] update_host_mtx : 63 ms
[OGL LOG] matrix is not yet sorted, sorting host matrix
[OGL LOG] sort_host_mtx_sparsity_pattern : 87 ms
[OGL LOG] sort_host_mtx : 42 ms
[OGL LOG] init_preconditioner : 0 ms
[OGL LOG] solve : 10508 ms
noneompGKOBiCGStab:  Solving for p, Initial residual = 0.400283, Final residual = 8.97425e-05, No Iterations 432
linear solve p 10874774
time step continuity errors : sum local = 3.18846e-07, global = -3.83579e-21, cumulative = -4.62252e-20
ExecutionTime = 93.39 s  ClockTime = 93 s

Time = 0.005

Courant Number mean: 0.0834217 max: 0.689478
DILUPBiCGStab:  Solving for Ux, Initial residual = 0.021442, Final residual = 6.82698e-05, No Iterations 5
DILUPBiCGStab:  Solving for Uy, Initial residual = 0.0536868, Final residual = 0.000129655, No Iterations 5
DILUPBiCGStab:  Solving for Uz, Initial residual = 0.410817, Final residual = 0.00200466, No Iterations 5
linear solve U 383741
[OGL LOG] init_host_sparsity_pattern : 117 ms
[OGL LOG] matrix not stored update host matrix
[OGL LOG] update_host_mtx : 65 ms
[OGL LOG] matrix is not yet sorted, sorting host matrix
[OGL LOG] sort_host_mtx_sparsity_pattern : 86 ms
[OGL LOG] sort_host_mtx : 43 ms
[OGL LOG] init_preconditioner : 0 ms
[OGL LOG] solve : 10129 ms
noneompGKOBiCGStab:  Solving for p, Initial residual = 0.409525, Final residual = 9.84296e-05, No Iterations 418
linear solve p 10495213
time step continuity errors : sum local = 9.36394e-08, global = -1.27653e-20, cumulative = -5.89905e-20
[OGL LOG] init_host_sparsity_pattern : 120 ms
[OGL LOG] matrix not stored update host matrix
[OGL LOG] update_host_mtx : 62 ms
[OGL LOG] matrix is not yet sorted, sorting host matrix
[OGL LOG] sort_host_mtx_sparsity_pattern : 86 ms
[OGL LOG] sort_host_mtx : 42 ms
[OGL LOG] init_preconditioner : 0 ms
[OGL LOG] solve : 10623 ms
noneompGKOBiCGStab:  Solving for p, Initial residual = 0.359421, Final residual = 9.78061e-05, No Iterations 437
linear solve p 10987997
time step continuity errors : sum local = 5.28728e-08, global = -5.80583e-21, cumulative = -6.47964e-20
ExecutionTime = 115.4 s  ClockTime = 116 s

Time = 0.006

Courant Number mean: 0.0902385 max: 0.695614
DILUPBiCGStab:  Solving for Ux, Initial residual = 0.0154606, Final residual = 4.28353e-05, No Iterations 5
DILUPBiCGStab:  Solving for Uy, Initial residual = 0.0410945, Final residual = 0.000105736, No Iterations 5
DILUPBiCGStab:  Solving for Uz, Initial residual = 0.263512, Final residual = 0.00132764, No Iterations 5
linear solve U 386188
[OGL LOG] init_host_sparsity_pattern : 116 ms
[OGL LOG] matrix not stored update host matrix
[OGL LOG] update_host_mtx : 62 ms
[OGL LOG] matrix is not yet sorted, sorting host matrix
[OGL LOG] sort_host_mtx_sparsity_pattern : 86 ms
[OGL LOG] sort_host_mtx : 43 ms
[OGL LOG] init_preconditioner : 0 ms
[OGL LOG] solve : 10491 ms
noneompGKOBiCGStab:  Solving for p, Initial residual = 0.258049, Final residual = 7.56716e-05, No Iterations 432
linear solve p 10852439
time step continuity errors : sum local = 8.60062e-08, global = 8.90946e-21, cumulative = -5.58869e-20
[OGL LOG] init_host_sparsity_pattern : 120 ms
[OGL LOG] matrix not stored update host matrix
[OGL LOG] update_host_mtx : 62 ms
[OGL LOG] matrix is not yet sorted, sorting host matrix
[OGL LOG] sort_host_mtx_sparsity_pattern : 86 ms
[OGL LOG] sort_host_mtx : 42 ms
[OGL LOG] init_preconditioner : 0 ms
[OGL LOG] solve : 10006 ms
noneompGKOBiCGStab:  Solving for p, Initial residual = 0.218189, Final residual = 8.74298e-05, No Iterations 412
linear solve p 10370784
time step continuity errors : sum local = 6.76961e-08, global = -5.86148e-21, cumulative = -6.17484e-20
ExecutionTime = 137.16 s  ClockTime = 137 s

Time = 0.007

Courant Number mean: 0.0957473 max: 0.699013
DILUPBiCGStab:  Solving for Ux, Initial residual = 0.0121496, Final residual = 2.68097e-05, No Iterations 5
DILUPBiCGStab:  Solving for Uy, Initial residual = 0.0293639, Final residual = 5.23173e-05, No Iterations 5
DILUPBiCGStab:  Solving for Uz, Initial residual = 0.123882, Final residual = 0.000651435, No Iterations 5
linear solve U 384038
[OGL LOG] init_host_sparsity_pattern : 116 ms
[OGL LOG] matrix not stored update host matrix
[OGL LOG] update_host_mtx : 62 ms
[OGL LOG] matrix is not yet sorted, sorting host matrix
[OGL LOG] sort_host_mtx_sparsity_pattern : 86 ms
[OGL LOG] sort_host_mtx : 42 ms
[OGL LOG] init_preconditioner : 0 ms
[OGL LOG] solve : 10471 ms
noneompGKOBiCGStab:  Solving for p, Initial residual = 0.194437, Final residual = 9.39763e-05, No Iterations 432
linear solve p 10831300
time step continuity errors : sum local = 3.96846e-08, global = 6.02411e-21, cumulative = -5.57243e-20
[OGL LOG] init_host_sparsity_pattern : 120 ms
[OGL LOG] matrix not stored update host matrix
[OGL LOG] update_host_mtx : 62 ms
[OGL LOG] matrix is not yet sorted, sorting host matrix
[OGL LOG] sort_host_mtx_sparsity_pattern : 86 ms
[OGL LOG] sort_host_mtx : 43 ms
[OGL LOG] init_preconditioner : 0 ms
[OGL LOG] solve : 10300 ms
noneompGKOBiCGStab:  Solving for p, Initial residual = 0.165019, Final residual = 9.93482e-05, No Iterations 424
linear solve p 10665122
time step continuity errors : sum local = 4.23907e-08, global = 2.01799e-20, cumulative = -3.55444e-20
ExecutionTime = 159.18 s  ClockTime = 160 s

Time = 0.008

Courant Number mean: 0.10041 max: 0.702108
DILUPBiCGStab:  Solving for Ux, Initial residual = 0.00969786, Final residual = 1.82479e-05, No Iterations 5
DILUPBiCGStab:  Solving for Uy, Initial residual = 0.0234771, Final residual = 3.70456e-05, No Iterations 5
DILUPBiCGStab:  Solving for Uz, Initial residual = 0.0798895, Final residual = 0.000346565, No Iterations 5
linear solve U 385717
[OGL LOG] init_host_sparsity_pattern : 116 ms
[OGL LOG] matrix not stored update host matrix
[OGL LOG] update_host_mtx : 61 ms
[OGL LOG] matrix is not yet sorted, sorting host matrix
[OGL LOG] sort_host_mtx_sparsity_pattern : 86 ms
[OGL LOG] sort_host_mtx : 42 ms
[OGL LOG] init_preconditioner : 0 ms
[OGL LOG] solve : 10147 ms
noneompGKOBiCGStab:  Solving for p, Initial residual = 0.131711, Final residual = 7.32984e-05, No Iterations 418
linear solve p 10507724
time step continuity errors : sum local = 5.73986e-08, global = -3.11757e-21, cumulative = -3.86619e-20
[OGL LOG] init_host_sparsity_pattern : 120 ms
[OGL LOG] matrix not stored update host matrix
[OGL LOG] update_host_mtx : 62 ms
[OGL LOG] matrix is not yet sorted, sorting host matrix
[OGL LOG] sort_host_mtx_sparsity_pattern : 86 ms
[OGL LOG] sort_host_mtx : 43 ms
[OGL LOG] init_preconditioner : 0 ms
[OGL LOG] solve : 10075 ms
noneompGKOBiCGStab:  Solving for p, Initial residual = 0.11019, Final residual = 9.87344e-05, No Iterations 415
linear solve p 10440474
time step continuity errors : sum local = 5.09873e-08, global = -6.60972e-21, cumulative = -4.52717e-20
ExecutionTime = 180.66 s  ClockTime = 181 s

Time = 0.009

Courant Number mean: 0.104401 max: 0.704281
DILUPBiCGStab:  Solving for Ux, Initial residual = 0.00801285, Final residual = 1.14937e-05, No Iterations 5
DILUPBiCGStab:  Solving for Uy, Initial residual = 0.0194356, Final residual = 2.6314e-05, No Iterations 5
DILUPBiCGStab:  Solving for Uz, Initial residual = 0.0586662, Final residual = 0.000175597, No Iterations 5
linear solve U 384964
[OGL LOG] init_host_sparsity_pattern : 116 ms
[OGL LOG] matrix not stored update host matrix
[OGL LOG] update_host_mtx : 62 ms
[OGL LOG] matrix is not yet sorted, sorting host matrix
[OGL LOG] sort_host_mtx_sparsity_pattern : 86 ms
[OGL LOG] sort_host_mtx : 43 ms
[OGL LOG] init_preconditioner : 0 ms
[OGL LOG] solve : 8312 ms
noneompGKOBiCGStab:  Solving for p, Initial residual = 0.0973072, Final residual = 9.98868e-05, No Iterations 343
linear solve p 8673131
time step continuity errors : sum local = 7.47092e-08, global = 4.30839e-21, cumulative = -4.09633e-20
[OGL LOG] init_host_sparsity_pattern : 120 ms
[OGL LOG] matrix not stored update host matrix
[OGL LOG] update_host_mtx : 62 ms
[OGL LOG] matrix is not yet sorted, sorting host matrix
[OGL LOG] sort_host_mtx_sparsity_pattern : 86 ms
[OGL LOG] sort_host_mtx : 42 ms
[OGL LOG] init_preconditioner : 0 ms
[OGL LOG] solve : 4032 ms
noneompGKOBiCGStab:  Solving for p, Initial residual = 0.0816969, Final residual = 9.27265e-05, No Iterations 165
linear solve p 4395613
time step continuity errors : sum local = 6.81927e-08, global = -4.0119e-21, cumulative = -4.49752e-20
ExecutionTime = 194.29 s  ClockTime = 195 s

Time = 0.01

Courant Number mean: 0.107882 max: 0.706195
DILUPBiCGStab:  Solving for Ux, Initial residual = 0.00696326, Final residual = 1.07024e-05, No Iterations 5
DILUPBiCGStab:  Solving for Uy, Initial residual = 0.0165134, Final residual = 2.43605e-05, No Iterations 5
DILUPBiCGStab:  Solving for Uz, Initial residual = 0.0585139, Final residual = 0.000247178, No Iterations 5
linear solve U 384338
[OGL LOG] init_host_sparsity_pattern : 116 ms
[OGL LOG] matrix not stored update host matrix
[OGL LOG] update_host_mtx : 62 ms
[OGL LOG] matrix is not yet sorted, sorting host matrix
[OGL LOG] sort_host_mtx_sparsity_pattern : 86 ms
[OGL LOG] sort_host_mtx : 42 ms
[OGL LOG] init_preconditioner : 0 ms
[OGL LOG] solve : 9686 ms
noneompGKOBiCGStab:  Solving for p, Initial residual = 0.0700103, Final residual = 9.48264e-05, No Iterations 399
linear solve p 10046888
time step continuity errors : sum local = 4.70743e-08, global = -2.54866e-20, cumulative = -7.04618e-20
[OGL LOG] init_host_sparsity_pattern : 120 ms
[OGL LOG] matrix not stored update host matrix
[OGL LOG] update_host_mtx : 62 ms
[OGL LOG] matrix is not yet sorted, sorting host matrix
[OGL LOG] sort_host_mtx_sparsity_pattern : 86 ms
[OGL LOG] sort_host_mtx : 43 ms
[OGL LOG] init_preconditioner : 0 ms
[OGL LOG] solve : 9542 ms
noneompGKOBiCGStab:  Solving for p, Initial residual = 0.05875, Final residual = 9.88579e-05, No Iterations 394
linear solve p 9906707
time step continuity errors : sum local = 3.90524e-08, global = -1.77609e-20, cumulative = -8.82227e-20
ExecutionTime = 214.78 s  ClockTime = 215 s

End

