/*---------------------------------------------------------------------------*\
  =========                 |
  \\      /  F ield         | OpenFOAM: The Open Source CFD Toolbox
   \\    /   O peration     | Website:  https://openfoam.org
    \\  /    A nd           | Version:  8
     \\/     M anipulation  |
\*---------------------------------------------------------------------------*/
Build  : 8-40a5a48f630f
Exec   : icoFoam
Date   : Jul 28 2021
Time   : 12:08:29
Host   : "uc2n397.localdomain"
PID    : 266435
I/O    : uncollated
Case   : /pfs/data5/home/kit/scc/nq7776/code/OBR/lidDrivenCavity3D/Variation_mesh/65/Variation_matrix_solver/BiCGStab_NoPrecond_OMP/base
nProcs : 1
sigFpe : Enabling floating point exception trapping (FOAM_SIGFPE).
fileModificationChecking : Monitoring run-time modified files using timeStampMaster (fileModificationSkew 10)
allowSystemOperations : Allowing user-supplied system call operations

// * * * * * * * * * * * * * * * * * * * * * * * * * * * * * * * * * * * * * //
Create time

Create mesh for time = 0

Reading transportProperties

Reading field p

Reading field U

Reading/calculating face flux field phi


Starting time loop

Time = 0.001

Courant Number mean: 0 max: 0
nonePBiCGStab:  Solving for Ux, Initial residual = 1, Final residual = 0.053017, No Iterations 5
nonePBiCGStab:  Solving for Uy, Initial residual = 0, Final residual = 0, No Iterations 0
nonePBiCGStab:  Solving for Uz, Initial residual = 0, Final residual = 0, No Iterations 0
linear solve U 69
[OGL LOG] init_host_sparsity_pattern : 77 ms
[OGL LOG] matrix not stored update host matrix
[OGL LOG] update_host_mtx : 40 ms
[OGL LOG] matrix is not yet sorted, compute sorting idxs
[OGL LOG] compute_sort : 2378 ms
[OGL LOG] matrix is not yet sorted, sorting host matrix
[OGL LOG] sort_host_mtx_sparsity_pattern : 57 ms
[OGL LOG] sort_host_mtx : 33 ms
[OGL LOG] init_preconditioner : 0 ms
[OGL LOG] solve : 2715 ms
noneompGKOBiCGStab:  Solving for p, Initial residual = 1, Final residual = 9.23015e-05, No Iterations 415
linear solve p 5359
time step continuity errors : sum local = 1.54945e-07, global = -1.26331e-21, cumulative = -1.26331e-21
[OGL LOG] init_host_sparsity_pattern : 75 ms
[OGL LOG] matrix not stored update host matrix
[OGL LOG] update_host_mtx : 40 ms
[OGL LOG] matrix is not yet sorted, sorting host matrix
[OGL LOG] sort_host_mtx_sparsity_pattern : 56 ms
[OGL LOG] sort_host_mtx : 28 ms
[OGL LOG] init_preconditioner : 0 ms
[OGL LOG] solve : 2603 ms
noneompGKOBiCGStab:  Solving for p, Initial residual = 0.674596, Final residual = 9.84261e-05, No Iterations 404
linear solve p 2837
time step continuity errors : sum local = 9.68535e-06, global = -5.06854e-21, cumulative = -6.33185e-21
ExecutionTime = 25.38 s  ClockTime = 9 s

Time = 0.002

Courant Number mean: 0.0326907 max: 0.468251
nonePBiCGStab:  Solving for Ux, Initial residual = 0.152192, Final residual = 0.0215397, No Iterations 5
nonePBiCGStab:  Solving for Uy, Initial residual = 0.364662, Final residual = 0.0500774, No Iterations 5
nonePBiCGStab:  Solving for Uz, Initial residual = 0.933131, Final residual = 0.175946, No Iterations 5
linear solve U 137
[OGL LOG] init_host_sparsity_pattern : 74 ms
[OGL LOG] matrix not stored update host matrix
[OGL LOG] update_host_mtx : 39 ms
[OGL LOG] matrix is not yet sorted, sorting host matrix
[OGL LOG] sort_host_mtx_sparsity_pattern : 58 ms
[OGL LOG] sort_host_mtx : 27 ms
[OGL LOG] init_preconditioner : 0 ms
[OGL LOG] solve : 2713 ms
noneompGKOBiCGStab:  Solving for p, Initial residual = 0.655813, Final residual = 7.53581e-05, No Iterations 417
linear solve p 2949
time step continuity errors : sum local = 2.21332e-06, global = 1.48561e-20, cumulative = 8.52424e-21
[OGL LOG] init_host_sparsity_pattern : 78 ms
[OGL LOG] matrix not stored update host matrix
[OGL LOG] update_host_mtx : 40 ms
[OGL LOG] matrix is not yet sorted, sorting host matrix
[OGL LOG] sort_host_mtx_sparsity_pattern : 56 ms
[OGL LOG] sort_host_mtx : 27 ms
[OGL LOG] init_preconditioner : 0 ms
[OGL LOG] solve : 2518 ms
noneompGKOBiCGStab:  Solving for p, Initial residual = 0.571526, Final residual = 9.98303e-05, No Iterations 386
linear solve p 2754
time step continuity errors : sum local = 3.94222e-07, global = -4.9943e-21, cumulative = 3.52994e-21
ExecutionTime = 47.06 s  ClockTime = 15 s

Time = 0.003

Courant Number mean: 0.0501192 max: 0.556393
nonePBiCGStab:  Solving for Ux, Initial residual = 0.0551691, Final residual = 0.00603878, No Iterations 5
nonePBiCGStab:  Solving for Uy, Initial residual = 0.128162, Final residual = 0.0188992, No Iterations 5
nonePBiCGStab:  Solving for Uz, Initial residual = 0.436028, Final residual = 0.0915168, No Iterations 5
linear solve U 136
[OGL LOG] init_host_sparsity_pattern : 75 ms
[OGL LOG] matrix not stored update host matrix
[OGL LOG] update_host_mtx : 40 ms
[OGL LOG] matrix is not yet sorted, sorting host matrix
[OGL LOG] sort_host_mtx_sparsity_pattern : 56 ms
[OGL LOG] sort_host_mtx : 28 ms
[OGL LOG] init_preconditioner : 0 ms
[OGL LOG] solve : 2114 ms
noneompGKOBiCGStab:  Solving for p, Initial residual = 0.563768, Final residual = 8.45743e-05, No Iterations 323
linear solve p 2348
time step continuity errors : sum local = 8.91569e-07, global = -2.49014e-22, cumulative = 3.28093e-21
[OGL LOG] init_host_sparsity_pattern : 74 ms
[OGL LOG] matrix not stored update host matrix
[OGL LOG] update_host_mtx : 37 ms
[OGL LOG] matrix is not yet sorted, sorting host matrix
[OGL LOG] sort_host_mtx_sparsity_pattern : 57 ms
[OGL LOG] sort_host_mtx : 27 ms
[OGL LOG] init_preconditioner : 0 ms
[OGL LOG] solve : 2258 ms
noneompGKOBiCGStab:  Solving for p, Initial residual = 0.496837, Final residual = 8.78587e-05, No Iterations 348
linear solve p 2491
time step continuity errors : sum local = 5.65174e-08, global = -4.79207e-21, cumulative = -1.51115e-21
ExecutionTime = 65.34 s  ClockTime = 20 s

Time = 0.004

Courant Number mean: 0.0601275 max: 0.574874
nonePBiCGStab:  Solving for Ux, Initial residual = 0.0336405, Final residual = 0.0033348, No Iterations 5
nonePBiCGStab:  Solving for Uy, Initial residual = 0.0815337, Final residual = 0.00724578, No Iterations 5
nonePBiCGStab:  Solving for Uz, Initial residual = 0.264434, Final residual = 0.0410661, No Iterations 5
linear solve U 138
[OGL LOG] init_host_sparsity_pattern : 75 ms
[OGL LOG] matrix not stored update host matrix
[OGL LOG] update_host_mtx : 40 ms
[OGL LOG] matrix is not yet sorted, sorting host matrix
[OGL LOG] sort_host_mtx_sparsity_pattern : 56 ms
[OGL LOG] sort_host_mtx : 27 ms
[OGL LOG] init_preconditioner : 0 ms
[OGL LOG] solve : 2717 ms
noneompGKOBiCGStab:  Solving for p, Initial residual = 0.365561, Final residual = 4.81495e-05, No Iterations 419
linear solve p 2949
time step continuity errors : sum local = 6.07789e-07, global = -6.30454e-21, cumulative = -7.81568e-21
[OGL LOG] init_host_sparsity_pattern : 72 ms
[OGL LOG] matrix not stored update host matrix
[OGL LOG] update_host_mtx : 35 ms
[OGL LOG] matrix is not yet sorted, sorting host matrix
[OGL LOG] sort_host_mtx_sparsity_pattern : 55 ms
[OGL LOG] sort_host_mtx : 27 ms
[OGL LOG] init_preconditioner : 0 ms
[OGL LOG] solve : 2467 ms
noneompGKOBiCGStab:  Solving for p, Initial residual = 0.302312, Final residual = 7.85568e-05, No Iterations 381
linear solve p 2690
time step continuity errors : sum local = 5.63439e-07, global = -2.05687e-20, cumulative = -2.83844e-20
ExecutionTime = 86.81 s  ClockTime = 26 s

Time = 0.005

Courant Number mean: 0.0681318 max: 0.585584
nonePBiCGStab:  Solving for Ux, Initial residual = 0.0236975, Final residual = 0.00201569, No Iterations 5
nonePBiCGStab:  Solving for Uy, Initial residual = 0.0541032, Final residual = 0.00424983, No Iterations 5
nonePBiCGStab:  Solving for Uz, Initial residual = 0.154243, Final residual = 0.0280007, No Iterations 5
linear solve U 136
[OGL LOG] init_host_sparsity_pattern : 74 ms
[OGL LOG] matrix not stored update host matrix
[OGL LOG] update_host_mtx : 40 ms
[OGL LOG] matrix is not yet sorted, sorting host matrix
[OGL LOG] sort_host_mtx_sparsity_pattern : 56 ms
[OGL LOG] sort_host_mtx : 27 ms
[OGL LOG] init_preconditioner : 0 ms
[OGL LOG] solve : 2200 ms
noneompGKOBiCGStab:  Solving for p, Initial residual = 0.285797, Final residual = 8.67195e-05, No Iterations 340
linear solve p 2431
time step continuity errors : sum local = 5.69413e-08, global = 2.04433e-20, cumulative = -7.94103e-21
[OGL LOG] init_host_sparsity_pattern : 72 ms
[OGL LOG] matrix not stored update host matrix
[OGL LOG] update_host_mtx : 35 ms
[OGL LOG] matrix is not yet sorted, sorting host matrix
[OGL LOG] sort_host_mtx_sparsity_pattern : 56 ms
[OGL LOG] sort_host_mtx : 27 ms
[OGL LOG] init_preconditioner : 0 ms
[OGL LOG] solve : 2017 ms
noneompGKOBiCGStab:  Solving for p, Initial residual = 0.241695, Final residual = 9.62993e-05, No Iterations 309
linear solve p 2240
time step continuity errors : sum local = 2.46377e-07, global = -1.53056e-20, cumulative = -2.32466e-20
ExecutionTime = 104.44 s  ClockTime = 31 s

Time = 0.006

Courant Number mean: 0.0744141 max: 0.592157
nonePBiCGStab:  Solving for Ux, Initial residual = 0.0178681, Final residual = 0.00119084, No Iterations 5
nonePBiCGStab:  Solving for Uy, Initial residual = 0.040083, Final residual = 0.00214647, No Iterations 5
nonePBiCGStab:  Solving for Uz, Initial residual = 0.109121, Final residual = 0.0152611, No Iterations 5
linear solve U 138
[OGL LOG] init_host_sparsity_pattern : 74 ms
[OGL LOG] matrix not stored update host matrix
[OGL LOG] update_host_mtx : 40 ms
[OGL LOG] matrix is not yet sorted, sorting host matrix
[OGL LOG] sort_host_mtx_sparsity_pattern : 56 ms
[OGL LOG] sort_host_mtx : 27 ms
[OGL LOG] init_preconditioner : 0 ms
[OGL LOG] solve : 2485 ms
noneompGKOBiCGStab:  Solving for p, Initial residual = 0.1905, Final residual = 3.71886e-05, No Iterations 383
linear solve p 2715
time step continuity errors : sum local = 2.20781e-05, global = 3.07753e-20, cumulative = 7.52864e-21
[OGL LOG] init_host_sparsity_pattern : 72 ms
[OGL LOG] matrix not stored update host matrix
[OGL LOG] update_host_mtx : 35 ms
[OGL LOG] matrix is not yet sorted, sorting host matrix
[OGL LOG] sort_host_mtx_sparsity_pattern : 55 ms
[OGL LOG] sort_host_mtx : 27 ms
[OGL LOG] init_preconditioner : 0 ms
[OGL LOG] solve : 2332 ms
noneompGKOBiCGStab:  Solving for p, Initial residual = 0.189579, Final residual = 9.7513e-05, No Iterations 363
linear solve p 2556
time step continuity errors : sum local = 5.50282e-08, global = -2.12093e-20, cumulative = -1.36806e-20
ExecutionTime = 124.46 s  ClockTime = 37 s

Time = 0.007

Courant Number mean: 0.0796349 max: 0.596632
nonePBiCGStab:  Solving for Ux, Initial residual = 0.0145985, Final residual = 0.00152275, No Iterations 5
nonePBiCGStab:  Solving for Uy, Initial residual = 0.0433087, Final residual = 0.00521142, No Iterations 5
nonePBiCGStab:  Solving for Uz, Initial residual = 0.548062, Final residual = 0.0929068, No Iterations 5
linear solve U 139
[OGL LOG] init_host_sparsity_pattern : 75 ms
[OGL LOG] matrix not stored update host matrix
[OGL LOG] update_host_mtx : 41 ms
[OGL LOG] matrix is not yet sorted, sorting host matrix
[OGL LOG] sort_host_mtx_sparsity_pattern : 57 ms
[OGL LOG] sort_host_mtx : 27 ms
[OGL LOG] init_preconditioner : 0 ms
[OGL LOG] solve : 2346 ms
noneompGKOBiCGStab:  Solving for p, Initial residual = 0.287419, Final residual = 9.66863e-05, No Iterations 368
linear solve p 2585
time step continuity errors : sum local = 5.06009e-07, global = 2.15054e-20, cumulative = 7.82476e-21
[OGL LOG] init_host_sparsity_pattern : 72 ms
[OGL LOG] matrix not stored update host matrix
[OGL LOG] update_host_mtx : 38 ms
[OGL LOG] matrix is not yet sorted, sorting host matrix
[OGL LOG] sort_host_mtx_sparsity_pattern : 56 ms
[OGL LOG] sort_host_mtx : 28 ms
[OGL LOG] init_preconditioner : 0 ms
[OGL LOG] solve : 2318 ms
noneompGKOBiCGStab:  Solving for p, Initial residual = 0.257395, Final residual = 8.7578e-05, No Iterations 360
linear solve p 2551
time step continuity errors : sum local = 5.04639e-07, global = 8.13139e-21, cumulative = 1.59562e-20
ExecutionTime = 143.92 s  ClockTime = 42 s

Time = 0.008

Courant Number mean: 0.0839794 max: 0.600659
nonePBiCGStab:  Solving for Ux, Initial residual = 0.0122742, Final residual = 0.000883539, No Iterations 5
nonePBiCGStab:  Solving for Uy, Initial residual = 0.0310355, Final residual = 0.00232391, No Iterations 5
nonePBiCGStab:  Solving for Uz, Initial residual = 0.269268, Final residual = 0.0360213, No Iterations 5
linear solve U 132
[OGL LOG] init_host_sparsity_pattern : 74 ms
[OGL LOG] matrix not stored update host matrix
[OGL LOG] update_host_mtx : 39 ms
[OGL LOG] matrix is not yet sorted, sorting host matrix
[OGL LOG] sort_host_mtx_sparsity_pattern : 57 ms
[OGL LOG] sort_host_mtx : 28 ms
[OGL LOG] init_preconditioner : 0 ms
[OGL LOG] solve : 2451 ms
noneompGKOBiCGStab:  Solving for p, Initial residual = 0.169288, Final residual = 9.9482e-05, No Iterations 378
linear solve p 2685
time step continuity errors : sum local = 6.72857e-08, global = 1.82164e-21, cumulative = 1.77778e-20
[OGL LOG] init_host_sparsity_pattern : 72 ms
[OGL LOG] matrix not stored update host matrix
[OGL LOG] update_host_mtx : 35 ms
[OGL LOG] matrix is not yet sorted, sorting host matrix
[OGL LOG] sort_host_mtx_sparsity_pattern : 55 ms
[OGL LOG] sort_host_mtx : 27 ms
[OGL LOG] init_preconditioner : 0 ms
[OGL LOG] solve : 2196 ms
noneompGKOBiCGStab:  Solving for p, Initial residual = 0.142191, Final residual = 9.1525e-05, No Iterations 350
linear solve p 2421
time step continuity errors : sum local = 5.11204e-07, global = 4.6736e-22, cumulative = 1.82451e-20
ExecutionTime = 163.27 s  ClockTime = 48 s

Time = 0.009

Courant Number mean: 0.0876229 max: 0.602539
nonePBiCGStab:  Solving for Ux, Initial residual = 0.00976297, Final residual = 0.000638212, No Iterations 5
nonePBiCGStab:  Solving for Uy, Initial residual = 0.0231705, Final residual = 0.00135671, No Iterations 5
nonePBiCGStab:  Solving for Uz, Initial residual = 0.0923067, Final residual = 0.0149772, No Iterations 5
linear solve U 134
[OGL LOG] init_host_sparsity_pattern : 72 ms
[OGL LOG] matrix not stored update host matrix
[OGL LOG] update_host_mtx : 38 ms
[OGL LOG] matrix is not yet sorted, sorting host matrix
[OGL LOG] sort_host_mtx_sparsity_pattern : 58 ms
[OGL LOG] sort_host_mtx : 28 ms
[OGL LOG] init_preconditioner : 0 ms
[OGL LOG] solve : 2028 ms
noneompGKOBiCGStab:  Solving for p, Initial residual = 0.135044, Final residual = 9.0381e-05, No Iterations 314
linear solve p 2260
time step continuity errors : sum local = 1.1287e-06, global = 7.63605e-21, cumulative = 2.58812e-20
[OGL LOG] init_host_sparsity_pattern : 74 ms
[OGL LOG] matrix not stored update host matrix
[OGL LOG] update_host_mtx : 40 ms
[OGL LOG] matrix is not yet sorted, sorting host matrix
[OGL LOG] sort_host_mtx_sparsity_pattern : 55 ms
[OGL LOG] sort_host_mtx : 28 ms
[OGL LOG] init_preconditioner : 0 ms
[OGL LOG] solve : 1841 ms
noneompGKOBiCGStab:  Solving for p, Initial residual = 0.114579, Final residual = 8.55713e-05, No Iterations 285
linear solve p 2075
time step continuity errors : sum local = 2.94798e-06, global = 1.62934e-20, cumulative = 4.21746e-20
ExecutionTime = 179.53 s  ClockTime = 52 s

Time = 0.01

Courant Number mean: 0.0908691 max: 0.604645
nonePBiCGStab:  Solving for Ux, Initial residual = 0.00868115, Final residual = 0.000620667, No Iterations 5
nonePBiCGStab:  Solving for Uy, Initial residual = 0.0189266, Final residual = 0.00138576, No Iterations 5
nonePBiCGStab:  Solving for Uz, Initial residual = 0.0760791, Final residual = 0.0191064, No Iterations 5
linear solve U 133
[OGL LOG] init_host_sparsity_pattern : 72 ms
[OGL LOG] matrix not stored update host matrix
[OGL LOG] update_host_mtx : 40 ms
[OGL LOG] matrix is not yet sorted, sorting host matrix
[OGL LOG] sort_host_mtx_sparsity_pattern : 57 ms
[OGL LOG] sort_host_mtx : 28 ms
[OGL LOG] init_preconditioner : 0 ms
[OGL LOG] solve : 2218 ms
noneompGKOBiCGStab:  Solving for p, Initial residual = 0.123279, Final residual = 9.63573e-05, No Iterations 341
linear solve p 2452
time step continuity errors : sum local = 4.86859e-08, global = -2.52147e-20, cumulative = 1.69599e-20
[OGL LOG] init_host_sparsity_pattern : 72 ms
[OGL LOG] matrix not stored update host matrix
[OGL LOG] update_host_mtx : 37 ms
[OGL LOG] matrix is not yet sorted, sorting host matrix
[OGL LOG] sort_host_mtx_sparsity_pattern : 56 ms
[OGL LOG] sort_host_mtx : 28 ms
[OGL LOG] init_preconditioner : 0 ms
[OGL LOG] solve : 2484 ms
noneompGKOBiCGStab:  Solving for p, Initial residual = 0.101739, Final residual = 9.78662e-05, No Iterations 389
linear solve p 2711
time step continuity errors : sum local = 5.37084e-08, global = -2.62686e-20, cumulative = -9.3087e-21
ExecutionTime = 199.1 s  ClockTime = 58 s

End

