/*---------------------------------------------------------------------------*\
  =========                 |
  \\      /  F ield         | OpenFOAM: The Open Source CFD Toolbox
   \\    /   O peration     | Website:  https://openfoam.org
    \\  /    A nd           | Version:  8
     \\/     M anipulation  |
\*---------------------------------------------------------------------------*/
Build  : 8-ef60d22ea792
Exec   : icoFoam
Date   : Jul 29 2021
Time   : 03:37:52
Host   : "uc2n489.localdomain"
PID    : 3421738
I/O    : uncollated
Case   : /pfs/data5/home/kit/scc/nq7776/code/OBR/lidDrivenCavity3D/Variation_mesh/100/Variation_matrix_solver/IR_NoPrecond_CUDA/base
nProcs : 1
sigFpe : Enabling floating point exception trapping (FOAM_SIGFPE).
fileModificationChecking : Monitoring run-time modified files using timeStampMaster (fileModificationSkew 10)
allowSystemOperations : Allowing user-supplied system call operations

// * * * * * * * * * * * * * * * * * * * * * * * * * * * * * * * * * * * * * //
Create time

Create mesh for time = 0

Reading transportProperties

Reading field p

Reading field U

Reading/calculating face flux field phi


Starting time loop

Time = 0.001

Courant Number mean: 0 max: 0
DILUPBiCGStab:  Solving for Ux, Initial residual = 1, Final residual = 0.00717233, No Iterations 5
DILUPBiCGStab:  Solving for Uy:  solution singularity
DILUPBiCGStab:  Solving for Uz:  solution singularity
linear solve U 504561
[OGL LOG] init_host_sparsity_pattern : 285 ms
[OGL LOG] matrix not stored update host matrix
[OGL LOG] update_host_mtx : 148 ms
[OGL LOG] matrix is not yet sorted, compute sorting idxs
[OGL LOG] compute_sort : 9147 ms
[OGL LOG] matrix is not yet sorted, sorting host matrix
[OGL LOG] sort_host_mtx_sparsity_pattern : 200 ms
[OGL LOG] sort_host_mtx : 125 ms
[OGL LOG] init_preconditioner : 0 ms
[OGL LOG] solve : 498 ms
nonecudaGKOIR:  Solving for p, Initial residual = 1, Final residual = 1.39588e-05, No Iterations 3
linear solve p 11245411
time step continuity errors : sum local = 8.02062e-09, global = 1.52792e-20, cumulative = 1.52792e-20
[OGL LOG] init_host_sparsity_pattern : 275 ms
[OGL LOG] matrix not stored update host matrix
[OGL LOG] update_host_mtx : 154 ms
[OGL LOG] matrix is not yet sorted, sorting host matrix
[OGL LOG] sort_host_mtx_sparsity_pattern : 210 ms
[OGL LOG] sort_host_mtx : 111 ms
[OGL LOG] init_preconditioner : 0 ms
[OGL LOG] solve : 493 ms
nonecudaGKOIR:  Solving for p, Initial residual = 0.77731, Final residual = 7.50722e-06, No Iterations 3
linear solve p 1310012
time step continuity errors : sum local = 5.44164e-09, global = 3.89759e-22, cumulative = 1.5669e-20
ExecutionTime = 17.06 s  ClockTime = 17 s

Time = 0.002

Courant Number mean: 0.0560717 max: 0.805494
DILUPBiCGStab:  Solving for Ux, Initial residual = 0.138282, Final residual = 0.00319033, No Iterations 5
DILUPBiCGStab:  Solving for Uy, Initial residual = 0.43054, Final residual = 0.00909573, No Iterations 5
DILUPBiCGStab:  Solving for Uz, Initial residual = 0.9903, Final residual = 0.0225853, No Iterations 5
linear solve U 1009626
[OGL LOG] init_host_sparsity_pattern : 276 ms
[OGL LOG] matrix not stored update host matrix
[OGL LOG] update_host_mtx : 148 ms
[OGL LOG] matrix is not yet sorted, sorting host matrix
[OGL LOG] sort_host_mtx_sparsity_pattern : 205 ms
[OGL LOG] sort_host_mtx : 102 ms
[OGL LOG] init_preconditioner : 0 ms
[OGL LOG] solve : 498 ms
nonecudaGKOIR:  Solving for p, Initial residual = 0.799779, Final residual = 4.38281e-06, No Iterations 3
linear solve p 1300820
time step continuity errors : sum local = 4.50104e-09, global = 7.1557e-21, cumulative = 2.28247e-20
[OGL LOG] init_host_sparsity_pattern : 264 ms
[OGL LOG] matrix not stored update host matrix
[OGL LOG] update_host_mtx : 147 ms
[OGL LOG] matrix is not yet sorted, sorting host matrix
[OGL LOG] sort_host_mtx_sparsity_pattern : 205 ms
[OGL LOG] sort_host_mtx : 102 ms
[OGL LOG] init_preconditioner : 0 ms
[OGL LOG] solve : 499 ms
nonecudaGKOIR:  Solving for p, Initial residual = 0.740733, Final residual = 3.76936e-06, No Iterations 3
linear solve p 1282401
time step continuity errors : sum local = 3.95128e-09, global = 2.74251e-21, cumulative = 2.55672e-20
ExecutionTime = 21.26 s  ClockTime = 21 s

Time = 0.003

Courant Number mean: 0.0852774 max: 0.943633
DILUPBiCGStab:  Solving for Ux, Initial residual = 0.0649256, Final residual = 0.00112816, No Iterations 5
DILUPBiCGStab:  Solving for Uy, Initial residual = 0.225973, Final residual = 0.0029656, No Iterations 5
DILUPBiCGStab:  Solving for Uz, Initial residual = 0.792328, Final residual = 0.0162195, No Iterations 5
linear solve U 1000878
[OGL LOG] init_host_sparsity_pattern : 278 ms
[OGL LOG] matrix not stored update host matrix
[OGL LOG] update_host_mtx : 148 ms
[OGL LOG] matrix is not yet sorted, sorting host matrix
[OGL LOG] sort_host_mtx_sparsity_pattern : 211 ms
[OGL LOG] sort_host_mtx : 103 ms
[OGL LOG] init_preconditioner : 0 ms
[OGL LOG] solve : 517 ms
nonecudaGKOIR:  Solving for p, Initial residual = 0.832938, Final residual = 3.42614e-06, No Iterations 3
linear solve p 1321416
time step continuity errors : sum local = 3.29587e-09, global = -1.65017e-20, cumulative = 9.06549e-21
[OGL LOG] init_host_sparsity_pattern : 267 ms
[OGL LOG] matrix not stored update host matrix
[OGL LOG] update_host_mtx : 148 ms
[OGL LOG] matrix is not yet sorted, sorting host matrix
[OGL LOG] sort_host_mtx_sparsity_pattern : 205 ms
[OGL LOG] sort_host_mtx : 103 ms
[OGL LOG] init_preconditioner : 0 ms
[OGL LOG] solve : 517 ms
nonecudaGKOIR:  Solving for p, Initial residual = 0.802223, Final residual = 3.15167e-06, No Iterations 3
linear solve p 1305697
time step continuity errors : sum local = 2.95727e-09, global = -8.14603e-21, cumulative = 9.19455e-22
ExecutionTime = 25.49 s  ClockTime = 25 s

Time = 0.004

Courant Number mean: 0.098204 max: 0.926355
DILUPBiCGStab:  Solving for Ux, Initial residual = 0.038808, Final residual = 0.000835304, No Iterations 5
DILUPBiCGStab:  Solving for Uy, Initial residual = 0.168195, Final residual = 0.00318246, No Iterations 5
DILUPBiCGStab:  Solving for Uz, Initial residual = 0.628899, Final residual = 0.0109446, No Iterations 5
linear solve U 1017691
[OGL LOG] init_host_sparsity_pattern : 276 ms
[OGL LOG] matrix not stored update host matrix
[OGL LOG] update_host_mtx : 148 ms
[OGL LOG] matrix is not yet sorted, sorting host matrix
[OGL LOG] sort_host_mtx_sparsity_pattern : 205 ms
[OGL LOG] sort_host_mtx : 102 ms
[OGL LOG] init_preconditioner : 0 ms
[OGL LOG] solve : 521 ms
nonecudaGKOIR:  Solving for p, Initial residual = 0.749422, Final residual = 2.88479e-06, No Iterations 3
linear solve p 1318427
time step continuity errors : sum local = 2.55829e-09, global = -1.81577e-21, cumulative = -8.96318e-22
[OGL LOG] init_host_sparsity_pattern : 264 ms
[OGL LOG] matrix not stored update host matrix
[OGL LOG] update_host_mtx : 148 ms
[OGL LOG] matrix is not yet sorted, sorting host matrix
[OGL LOG] sort_host_mtx_sparsity_pattern : 205 ms
[OGL LOG] sort_host_mtx : 102 ms
[OGL LOG] init_preconditioner : 0 ms
[OGL LOG] solve : 518 ms
nonecudaGKOIR:  Solving for p, Initial residual = 0.685077, Final residual = 2.42481e-06, No Iterations 3
linear solve p 1302096
time step continuity errors : sum local = 2.18957e-09, global = 1.94868e-20, cumulative = 1.85904e-20
ExecutionTime = 29.73 s  ClockTime = 29 s

Time = 0.005

Courant Number mean: 0.110594 max: 0.94457
DILUPBiCGStab:  Solving for Ux, Initial residual = 0.0305065, Final residual = 0.000612533, No Iterations 5
DILUPBiCGStab:  Solving for Uy, Initial residual = 0.0983162, Final residual = 0.00202235, No Iterations 5
DILUPBiCGStab:  Solving for Uz, Initial residual = 0.588224, Final residual = 0.00948887, No Iterations 5
linear solve U 1009168
[OGL LOG] init_host_sparsity_pattern : 276 ms
[OGL LOG] matrix not stored update host matrix
[OGL LOG] update_host_mtx : 148 ms
[OGL LOG] matrix is not yet sorted, sorting host matrix
[OGL LOG] sort_host_mtx_sparsity_pattern : 205 ms
[OGL LOG] sort_host_mtx : 102 ms
[OGL LOG] init_preconditioner : 0 ms
[OGL LOG] solve : 532 ms
nonecudaGKOIR:  Solving for p, Initial residual = 0.757695, Final residual = 2.52736e-06, No Iterations 3
linear solve p 1328629
time step continuity errors : sum local = 1.88166e-09, global = 1.38688e-20, cumulative = 3.24592e-20
[OGL LOG] init_host_sparsity_pattern : 264 ms
[OGL LOG] matrix not stored update host matrix
[OGL LOG] update_host_mtx : 147 ms
[OGL LOG] matrix is not yet sorted, sorting host matrix
[OGL LOG] sort_host_mtx_sparsity_pattern : 212 ms
[OGL LOG] sort_host_mtx : 105 ms
[OGL LOG] init_preconditioner : 0 ms
[OGL LOG] solve : 529 ms
nonecudaGKOIR:  Solving for p, Initial residual = 0.709729, Final residual = 2.24146e-06, No Iterations 3
linear solve p 1322455
time step continuity errors : sum local = 1.64263e-09, global = -3.0558e-21, cumulative = 2.94034e-20
ExecutionTime = 34.01 s  ClockTime = 34 s

Time = 0.006

Courant Number mean: 0.118979 max: 0.944935
DILUPBiCGStab:  Solving for Ux, Initial residual = 0.0203497, Final residual = 0.000433618, No Iterations 5
DILUPBiCGStab:  Solving for Uy, Initial residual = 0.0819045, Final residual = 0.00163632, No Iterations 5
DILUPBiCGStab:  Solving for Uz, Initial residual = 0.434954, Final residual = 0.00695439, No Iterations 5
linear solve U 1002406
[OGL LOG] init_host_sparsity_pattern : 276 ms
[OGL LOG] matrix not stored update host matrix
[OGL LOG] update_host_mtx : 148 ms
[OGL LOG] matrix is not yet sorted, sorting host matrix
[OGL LOG] sort_host_mtx_sparsity_pattern : 205 ms
[OGL LOG] sort_host_mtx : 102 ms
[OGL LOG] init_preconditioner : 0 ms
[OGL LOG] solve : 530 ms
nonecudaGKOIR:  Solving for p, Initial residual = 0.661493, Final residual = 2.15805e-06, No Iterations 3
linear solve p 1325631
time step continuity errors : sum local = 1.49542e-09, global = -7.16082e-22, cumulative = 2.86873e-20
[OGL LOG] init_host_sparsity_pattern : 264 ms
[OGL LOG] matrix not stored update host matrix
[OGL LOG] update_host_mtx : 148 ms
[OGL LOG] matrix is not yet sorted, sorting host matrix
[OGL LOG] sort_host_mtx_sparsity_pattern : 205 ms
[OGL LOG] sort_host_mtx : 102 ms
[OGL LOG] init_preconditioner : 0 ms
[OGL LOG] solve : 530 ms
nonecudaGKOIR:  Solving for p, Initial residual = 0.600597, Final residual = 1.81043e-06, No Iterations 3
linear solve p 1314414
time step continuity errors : sum local = 1.26238e-09, global = 2.05134e-22, cumulative = 2.88925e-20
ExecutionTime = 38.26 s  ClockTime = 38 s

Time = 0.007

Courant Number mean: 0.12661 max: 0.947967
DILUPBiCGStab:  Solving for Ux, Initial residual = 0.0176529, Final residual = 0.000355377, No Iterations 5
DILUPBiCGStab:  Solving for Uy, Initial residual = 0.0557034, Final residual = 0.00126621, No Iterations 5
DILUPBiCGStab:  Solving for Uz, Initial residual = 0.379402, Final residual = 0.00583108, No Iterations 5
linear solve U 999047
[OGL LOG] init_host_sparsity_pattern : 276 ms
[OGL LOG] matrix not stored update host matrix
[OGL LOG] update_host_mtx : 147 ms
[OGL LOG] matrix is not yet sorted, sorting host matrix
[OGL LOG] sort_host_mtx_sparsity_pattern : 206 ms
[OGL LOG] sort_host_mtx : 102 ms
[OGL LOG] init_preconditioner : 0 ms
[OGL LOG] solve : 502 ms
nonecudaGKOIR:  Solving for p, Initial residual = 0.659481, Final residual = 1.9888e-06, No Iterations 3
linear solve p 1299762
time step continuity errors : sum local = 1.15807e-09, global = 6.20748e-21, cumulative = 3.50999e-20
[OGL LOG] init_host_sparsity_pattern : 264 ms
[OGL LOG] matrix not stored update host matrix
[OGL LOG] update_host_mtx : 147 ms
[OGL LOG] matrix is not yet sorted, sorting host matrix
[OGL LOG] sort_host_mtx_sparsity_pattern : 206 ms
[OGL LOG] sort_host_mtx : 103 ms
[OGL LOG] init_preconditioner : 0 ms
[OGL LOG] solve : 504 ms
nonecudaGKOIR:  Solving for p, Initial residual = 0.601896, Final residual = 1.55409e-06, No Iterations 3
linear solve p 1287660
time step continuity errors : sum local = 8.98708e-10, global = 1.56074e-20, cumulative = 5.07073e-20
ExecutionTime = 42.44 s  ClockTime = 42 s

Time = 0.008

Courant Number mean: 0.132627 max: 0.951934
DILUPBiCGStab:  Solving for Ux, Initial residual = 0.0129791, Final residual = 0.000262086, No Iterations 5
DILUPBiCGStab:  Solving for Uy, Initial residual = 0.0477115, Final residual = 0.00100326, No Iterations 5
DILUPBiCGStab:  Solving for Uz, Initial residual = 0.286353, Final residual = 0.00444725, No Iterations 5
linear solve U 1010967
[OGL LOG] init_host_sparsity_pattern : 276 ms
[OGL LOG] matrix not stored update host matrix
[OGL LOG] update_host_mtx : 147 ms
[OGL LOG] matrix is not yet sorted, sorting host matrix
[OGL LOG] sort_host_mtx_sparsity_pattern : 205 ms
[OGL LOG] sort_host_mtx : 102 ms
[OGL LOG] init_preconditioner : 0 ms
[OGL LOG] solve : 528 ms
nonecudaGKOIR:  Solving for p, Initial residual = 0.566975, Final residual = 1.62538e-06, No Iterations 3
linear solve p 1324244
time step continuity errors : sum local = 9.10579e-10, global = 7.23772e-21, cumulative = 5.79451e-20
[OGL LOG] init_host_sparsity_pattern : 264 ms
[OGL LOG] matrix not stored update host matrix
[OGL LOG] update_host_mtx : 148 ms
[OGL LOG] matrix is not yet sorted, sorting host matrix
[OGL LOG] sort_host_mtx_sparsity_pattern : 214 ms
[OGL LOG] sort_host_mtx : 101 ms
[OGL LOG] init_preconditioner : 0 ms
[OGL LOG] solve : 529 ms
nonecudaGKOIR:  Solving for p, Initial residual = 0.509205, Final residual = 1.42247e-06, No Iterations 3
linear solve p 1323905
time step continuity errors : sum local = 7.96272e-10, global = -1.52108e-20, cumulative = 4.27343e-20
ExecutionTime = 46.71 s  ClockTime = 46 s

Time = 0.009

Courant Number mean: 0.138049 max: 0.953447
DILUPBiCGStab:  Solving for Ux, Initial residual = 0.011462, Final residual = 0.000214155, No Iterations 5
DILUPBiCGStab:  Solving for Uy, Initial residual = 0.0357145, Final residual = 0.00079427, No Iterations 5
DILUPBiCGStab:  Solving for Uz, Initial residual = 0.244658, Final residual = 0.00384557, No Iterations 5
linear solve U 1000561
[OGL LOG] init_host_sparsity_pattern : 276 ms
[OGL LOG] matrix not stored update host matrix
[OGL LOG] update_host_mtx : 148 ms
[OGL LOG] matrix is not yet sorted, sorting host matrix
[OGL LOG] sort_host_mtx_sparsity_pattern : 207 ms
[OGL LOG] sort_host_mtx : 102 ms
[OGL LOG] init_preconditioner : 0 ms
[OGL LOG] solve : 476 ms
nonecudaGKOIR:  Solving for p, Initial residual = 0.555828, Final residual = 1.47781e-06, No Iterations 3
linear solve p 1272576
time step continuity errors : sum local = 7.18377e-10, global = -1.51725e-21, cumulative = 4.1217e-20
[OGL LOG] init_host_sparsity_pattern : 264 ms
[OGL LOG] matrix not stored update host matrix
[OGL LOG] update_host_mtx : 148 ms
[OGL LOG] matrix is not yet sorted, sorting host matrix
[OGL LOG] sort_host_mtx_sparsity_pattern : 205 ms
[OGL LOG] sort_host_mtx : 102 ms
[OGL LOG] init_preconditioner : 0 ms
[OGL LOG] solve : 478 ms
nonecudaGKOIR:  Solving for p, Initial residual = 0.496387, Final residual = 1.23174e-06, No Iterations 3
linear solve p 1261623
time step continuity errors : sum local = 5.97952e-10, global = -3.93275e-21, cumulative = 3.72843e-20
ExecutionTime = 50.84 s  ClockTime = 51 s

Time = 0.01

Courant Number mean: 0.142642 max: 0.955917
DILUPBiCGStab:  Solving for Ux, Initial residual = 0.00899373, Final residual = 0.000162528, No Iterations 5
DILUPBiCGStab:  Solving for Uy, Initial residual = 0.0308903, Final residual = 0.000636693, No Iterations 5
DILUPBiCGStab:  Solving for Uz, Initial residual = 0.189805, Final residual = 0.00309436, No Iterations 5
linear solve U 1005637
[OGL LOG] init_host_sparsity_pattern : 276 ms
[OGL LOG] matrix not stored update host matrix
[OGL LOG] update_host_mtx : 154 ms
[OGL LOG] matrix is not yet sorted, sorting host matrix
[OGL LOG] sort_host_mtx_sparsity_pattern : 205 ms
[OGL LOG] sort_host_mtx : 103 ms
[OGL LOG] init_preconditioner : 0 ms
[OGL LOG] solve : 528 ms
nonecudaGKOIR:  Solving for p, Initial residual = 0.477132, Final residual = 1.22578e-06, No Iterations 3
linear solve p 1330303
time step continuity errors : sum local = 5.83161e-10, global = 1.69988e-20, cumulative = 5.42831e-20
[OGL LOG] init_host_sparsity_pattern : 269 ms
[OGL LOG] matrix not stored update host matrix
[OGL LOG] update_host_mtx : 152 ms
[OGL LOG] matrix is not yet sorted, sorting host matrix
[OGL LOG] sort_host_mtx_sparsity_pattern : 209 ms
[OGL LOG] sort_host_mtx : 103 ms
[OGL LOG] init_preconditioner : 0 ms
[OGL LOG] solve : 249 ms
nonecudaGKOIR:  Solving for p, Initial residual = 0.424351, Final residual = 8.90662e-05, No Iterations 2
linear solve p 1047668
time step continuity errors : sum local = 4.51474e-08, global = 2.99262e-21, cumulative = 5.72758e-20
ExecutionTime = 54.82 s  ClockTime = 55 s

End

