/*---------------------------------------------------------------------------*\
  =========                 |
  \\      /  F ield         | OpenFOAM: The Open Source CFD Toolbox
   \\    /   O peration     | Website:  https://openfoam.org
    \\  /    A nd           | Version:  8
     \\/     M anipulation  |
\*---------------------------------------------------------------------------*/
Build  : 8-ef60d22ea792
Exec   : icoFoam
Date   : Jul 29 2021
Time   : 07:02:37
Host   : "nla-gpu2.ianm.kit.edu"
PID    : 1941570
I/O    : uncollated
Case   : /home/greole/code/OBR/lidDrivenCavity3D/Variation_mesh/5/Variation_matrix_solver/BiCGStab_NoPrecond_HIP/base
nProcs : 1
sigFpe : Enabling floating point exception trapping (FOAM_SIGFPE).
fileModificationChecking : Monitoring run-time modified files using timeStampMaster (fileModificationSkew 10)
allowSystemOperations : Allowing user-supplied system call operations

// * * * * * * * * * * * * * * * * * * * * * * * * * * * * * * * * * * * * * //
Create time

Create mesh for time = 0

Reading transportProperties

Reading field p

Reading field U

Reading/calculating face flux field phi


Starting time loop

Time = 0.001

Courant Number mean: 0 max: 0
DILUPBiCGStab:  Solving for Ux, Initial residual = 1, Final residual = 8.38041e-30, No Iterations 5
DILUPBiCGStab:  Solving for Uy:  solution singularity
DILUPBiCGStab:  Solving for Uz:  solution singularity
linear solve U 138
[OGL LOG] init_host_sparsity_pattern : 0 ms
[OGL LOG] matrix not stored update host matrix
[OGL LOG] update_host_mtx : 0 ms
[OGL LOG] matrix is not yet sorted, compute sorting idxs
[OGL LOG] compute_sort : 0 ms
[OGL LOG] matrix is not yet sorted, sorting host matrix
[OGL LOG] sort_host_mtx_sparsity_pattern : 0 ms
[OGL LOG] sort_host_mtx : 0 ms
[OGL LOG] init_preconditioner : 0 ms
[OGL LOG] solve : 34 ms
nonehipGKOBiCGStab:  Solving for p, Initial residual = 1, Final residual = 7.38526e-05, No Iterations 23
linear solve p 446723
time step continuity errors : sum local = 2.75901e-08, global = -1.00916e-22, cumulative = -1.00916e-22
[OGL LOG] init_host_sparsity_pattern : 0 ms
[OGL LOG] matrix not stored update host matrix
[OGL LOG] update_host_mtx : 0 ms
[OGL LOG] matrix is not yet sorted, sorting host matrix
[OGL LOG] sort_host_mtx_sparsity_pattern : 0 ms
[OGL LOG] sort_host_mtx : 0 ms
[OGL LOG] init_preconditioner : 0 ms
[OGL LOG] solve : 5 ms
nonehipGKOBiCGStab:  Solving for p, Initial residual = 0.0545096, Final residual = 6.23111e-05, No Iterations 20
linear solve p 6503
time step continuity errors : sum local = 4.64828e-08, global = 2.96751e-21, cumulative = 2.86659e-21
ExecutionTime = 0.53 s  ClockTime = 0 s

Time = 0.002

Courant Number mean: 0.000593169 max: 0.0013735
DILUPBiCGStab:  Solving for Ux, Initial residual = 0.290561, Final residual = 1.32916e-30, No Iterations 5
DILUPBiCGStab:  Solving for Uy, Initial residual = 0.317552, Final residual = 1.13383e-30, No Iterations 5
DILUPBiCGStab:  Solving for Uz, Initial residual = 0.341861, Final residual = 2.16822e-30, No Iterations 5
linear solve U 124
[OGL LOG] init_host_sparsity_pattern : 0 ms
[OGL LOG] matrix not stored update host matrix
[OGL LOG] update_host_mtx : 0 ms
[OGL LOG] matrix is not yet sorted, sorting host matrix
[OGL LOG] sort_host_mtx_sparsity_pattern : 0 ms
[OGL LOG] sort_host_mtx : 0 ms
[OGL LOG] init_preconditioner : 0 ms
[OGL LOG] solve : 5 ms
nonehipGKOBiCGStab:  Solving for p, Initial residual = 0.110324, Final residual = 9.79016e-05, No Iterations 18
linear solve p 5904
time step continuity errors : sum local = 7.87104e-08, global = 1.0712e-21, cumulative = 3.93779e-21
[OGL LOG] init_host_sparsity_pattern : 0 ms
[OGL LOG] matrix not stored update host matrix
[OGL LOG] update_host_mtx : 0 ms
[OGL LOG] matrix is not yet sorted, sorting host matrix
[OGL LOG] sort_host_mtx_sparsity_pattern : 0 ms
[OGL LOG] sort_host_mtx : 0 ms
[OGL LOG] init_preconditioner : 0 ms
[OGL LOG] solve : 1 ms
nonehipGKOBiCGStab:  Solving for p, Initial residual = 0.00289133, Final residual = 9.53076e-05, No Iterations 5
linear solve p 2329
time step continuity errors : sum local = 7.51026e-08, global = -7.57697e-22, cumulative = 3.1801e-21
ExecutionTime = 0.55 s  ClockTime = 0 s

Time = 0.003

Courant Number mean: 0.00113048 max: 0.00263293
DILUPBiCGStab:  Solving for Ux, Initial residual = 0.161956, Final residual = 7.38268e-31, No Iterations 5
DILUPBiCGStab:  Solving for Uy, Initial residual = 0.186583, Final residual = 6.79964e-31, No Iterations 5
DILUPBiCGStab:  Solving for Uz, Initial residual = 0.22463, Final residual = 1.59654e-30, No Iterations 5
linear solve U 118
[OGL LOG] init_host_sparsity_pattern : 0 ms
[OGL LOG] matrix not stored update host matrix
[OGL LOG] update_host_mtx : 0 ms
[OGL LOG] matrix is not yet sorted, sorting host matrix
[OGL LOG] sort_host_mtx_sparsity_pattern : 0 ms
[OGL LOG] sort_host_mtx : 0 ms
[OGL LOG] init_preconditioner : 0 ms
[OGL LOG] solve : 4 ms
nonehipGKOBiCGStab:  Solving for p, Initial residual = 0.0561868, Final residual = 9.67228e-05, No Iterations 15
linear solve p 4963
time step continuity errors : sum local = 9.09599e-08, global = 1.13944e-21, cumulative = 4.31954e-21
[OGL LOG] init_host_sparsity_pattern : 0 ms
[OGL LOG] matrix not stored update host matrix
[OGL LOG] update_host_mtx : 0 ms
[OGL LOG] matrix is not yet sorted, sorting host matrix
[OGL LOG] sort_host_mtx_sparsity_pattern : 0 ms
[OGL LOG] sort_host_mtx : 0 ms
[OGL LOG] init_preconditioner : 0 ms
[OGL LOG] solve : 1 ms
nonehipGKOBiCGStab:  Solving for p, Initial residual = 0.00152782, Final residual = 9.66959e-05, No Iterations 4
linear solve p 1914
time step continuity errors : sum local = 8.8861e-08, global = -6.79322e-21, cumulative = -2.47368e-21
ExecutionTime = 0.55 s  ClockTime = 0 s

Time = 0.004

Courant Number mean: 0.00161825 max: 0.00379119
DILUPBiCGStab:  Solving for Ux, Initial residual = 0.108851, Final residual = 5.01435e-31, No Iterations 5
DILUPBiCGStab:  Solving for Uy, Initial residual = 0.129127, Final residual = 4.60844e-31, No Iterations 5
DILUPBiCGStab:  Solving for Uz, Initial residual = 0.173121, Final residual = 1.0076e-30, No Iterations 5
linear solve U 112
[OGL LOG] init_host_sparsity_pattern : 0 ms
[OGL LOG] matrix not stored update host matrix
[OGL LOG] update_host_mtx : 0 ms
[OGL LOG] matrix is not yet sorted, sorting host matrix
[OGL LOG] sort_host_mtx_sparsity_pattern : 0 ms
[OGL LOG] sort_host_mtx : 0 ms
[OGL LOG] init_preconditioner : 0 ms
[OGL LOG] solve : 4 ms
nonehipGKOBiCGStab:  Solving for p, Initial residual = 0.0347132, Final residual = 7.31885e-05, No Iterations 16
linear solve p 5243
time step continuity errors : sum local = 7.51455e-08, global = 6.07151e-21, cumulative = 3.59782e-21
[OGL LOG] init_host_sparsity_pattern : 0 ms
[OGL LOG] matrix not stored update host matrix
[OGL LOG] update_host_mtx : 0 ms
[OGL LOG] matrix is not yet sorted, sorting host matrix
[OGL LOG] sort_host_mtx_sparsity_pattern : 0 ms
[OGL LOG] sort_host_mtx : 0 ms
[OGL LOG] init_preconditioner : 0 ms
[OGL LOG] solve : 1 ms
nonehipGKOBiCGStab:  Solving for p, Initial residual = 0.0010084, Final residual = 9.35623e-05, No Iterations 3
linear solve p 1797
time step continuity errors : sum local = 8.23487e-08, global = 6.84078e-22, cumulative = 4.2819e-21
ExecutionTime = 0.57 s  ClockTime = 0 s

Time = 0.005

Courant Number mean: 0.0020619 max: 0.00485799
DILUPBiCGStab:  Solving for Ux, Initial residual = 0.0800505, Final residual = 3.73228e-31, No Iterations 5
DILUPBiCGStab:  Solving for Uy, Initial residual = 0.096707, Final residual = 3.34234e-31, No Iterations 5
DILUPBiCGStab:  Solving for Uz, Initial residual = 0.141183, Final residual = 7.233e-31, No Iterations 5
linear solve U 108
[OGL LOG] init_host_sparsity_pattern : 0 ms
[OGL LOG] matrix not stored update host matrix
[OGL LOG] update_host_mtx : 0 ms
[OGL LOG] matrix is not yet sorted, sorting host matrix
[OGL LOG] sort_host_mtx_sparsity_pattern : 0 ms
[OGL LOG] sort_host_mtx : 0 ms
[OGL LOG] init_preconditioner : 0 ms
[OGL LOG] solve : 4 ms
nonehipGKOBiCGStab:  Solving for p, Initial residual = 0.023564, Final residual = 9.89628e-05, No Iterations 14
linear solve p 4751
time step continuity errors : sum local = 1.07437e-07, global = 3.13171e-21, cumulative = 7.41361e-21
[OGL LOG] init_host_sparsity_pattern : 0 ms
[OGL LOG] matrix not stored update host matrix
[OGL LOG] update_host_mtx : 0 ms
[OGL LOG] matrix is not yet sorted, sorting host matrix
[OGL LOG] sort_host_mtx_sparsity_pattern : 0 ms
[OGL LOG] sort_host_mtx : 0 ms
[OGL LOG] init_preconditioner : 0 ms
[OGL LOG] solve : 1 ms
nonehipGKOBiCGStab:  Solving for p, Initial residual = 0.000756603, Final residual = 9.7233e-05, No Iterations 4
linear solve p 1904
time step continuity errors : sum local = 1.02941e-07, global = -2.54772e-22, cumulative = 7.15883e-21
ExecutionTime = 0.58 s  ClockTime = 0 s

Time = 0.006

Courant Number mean: 0.0024662 max: 0.00584197
DILUPBiCGStab:  Solving for Ux, Initial residual = 0.0620523, Final residual = 2.92096e-31, No Iterations 5
DILUPBiCGStab:  Solving for Uy, Initial residual = 0.0759702, Final residual = 2.54541e-31, No Iterations 5
DILUPBiCGStab:  Solving for Uz, Initial residual = 0.11772, Final residual = 6.10111e-31, No Iterations 5
linear solve U 118
[OGL LOG] init_host_sparsity_pattern : 0 ms
[OGL LOG] matrix not stored update host matrix
[OGL LOG] update_host_mtx : 0 ms
[OGL LOG] matrix is not yet sorted, sorting host matrix
[OGL LOG] sort_host_mtx_sparsity_pattern : 0 ms
[OGL LOG] sort_host_mtx : 0 ms
[OGL LOG] init_preconditioner : 0 ms
[OGL LOG] solve : 4 ms
nonehipGKOBiCGStab:  Solving for p, Initial residual = 0.0172572, Final residual = 7.27787e-05, No Iterations 16
linear solve p 5261
time step continuity errors : sum local = 8.19007e-08, global = -2.0481e-21, cumulative = 5.11074e-21
[OGL LOG] init_host_sparsity_pattern : 0 ms
[OGL LOG] matrix not stored update host matrix
[OGL LOG] update_host_mtx : 0 ms
[OGL LOG] matrix is not yet sorted, sorting host matrix
[OGL LOG] sort_host_mtx_sparsity_pattern : 0 ms
[OGL LOG] sort_host_mtx : 0 ms
[OGL LOG] init_preconditioner : 0 ms
[OGL LOG] solve : 1 ms
nonehipGKOBiCGStab:  Solving for p, Initial residual = 0.000607053, Final residual = 7.56555e-05, No Iterations 3
linear solve p 1810
time step continuity errors : sum local = 7.78973e-08, global = 9.51919e-21, cumulative = 1.46299e-20
ExecutionTime = 0.59 s  ClockTime = 0 s

Time = 0.007

Courant Number mean: 0.00283513 max: 0.00675071
DILUPBiCGStab:  Solving for Ux, Initial residual = 0.049768, Final residual = 2.35919e-31, No Iterations 5
DILUPBiCGStab:  Solving for Uy, Initial residual = 0.0616553, Final residual = 2.02667e-31, No Iterations 5
DILUPBiCGStab:  Solving for Uz, Initial residual = 0.10034, Final residual = 6.13212e-31, No Iterations 5
linear solve U 113
[OGL LOG] init_host_sparsity_pattern : 0 ms
[OGL LOG] matrix not stored update host matrix
[OGL LOG] update_host_mtx : 0 ms
[OGL LOG] matrix is not yet sorted, sorting host matrix
[OGL LOG] sort_host_mtx_sparsity_pattern : 0 ms
[OGL LOG] sort_host_mtx : 0 ms
[OGL LOG] init_preconditioner : 0 ms
[OGL LOG] solve : 4 ms
nonehipGKOBiCGStab:  Solving for p, Initial residual = 0.0132833, Final residual = 9.85147e-05, No Iterations 14
linear solve p 4754
time step continuity errors : sum local = 1.14312e-07, global = 1.6307e-20, cumulative = 3.0937e-20
[OGL LOG] init_host_sparsity_pattern : 0 ms
[OGL LOG] matrix not stored update host matrix
[OGL LOG] update_host_mtx : 0 ms
[OGL LOG] matrix is not yet sorted, sorting host matrix
[OGL LOG] sort_host_mtx_sparsity_pattern : 0 ms
[OGL LOG] sort_host_mtx : 0 ms
[OGL LOG] init_preconditioner : 0 ms
[OGL LOG] solve : 1 ms
nonehipGKOBiCGStab:  Solving for p, Initial residual = 0.000516277, Final residual = 9.39684e-05, No Iterations 3
linear solve p 1807
time step continuity errors : sum local = 1.06613e-07, global = 9.70448e-21, cumulative = 4.06415e-20
ExecutionTime = 0.61 s  ClockTime = 0 s

Time = 0.008

Courant Number mean: 0.00317234 max: 0.00759081
DILUPBiCGStab:  Solving for Ux, Initial residual = 0.0409139, Final residual = 1.95727e-31, No Iterations 5
DILUPBiCGStab:  Solving for Uy, Initial residual = 0.0511998, Final residual = 1.66915e-31, No Iterations 5
DILUPBiCGStab:  Solving for Uz, Initial residual = 0.0869859, Final residual = 6.25384e-31, No Iterations 5
linear solve U 107
[OGL LOG] init_host_sparsity_pattern : 0 ms
[OGL LOG] matrix not stored update host matrix
[OGL LOG] update_host_mtx : 0 ms
[OGL LOG] matrix is not yet sorted, sorting host matrix
[OGL LOG] sort_host_mtx_sparsity_pattern : 0 ms
[OGL LOG] sort_host_mtx : 0 ms
[OGL LOG] init_preconditioner : 0 ms
[OGL LOG] solve : 4 ms
nonehipGKOBiCGStab:  Solving for p, Initial residual = 0.0106209, Final residual = 9.24236e-05, No Iterations 15
linear solve p 4987
time step continuity errors : sum local = 1.09842e-07, global = 5.04779e-20, cumulative = 9.11193e-20
[OGL LOG] init_host_sparsity_pattern : 0 ms
[OGL LOG] matrix not stored update host matrix
[OGL LOG] update_host_mtx : 0 ms
[OGL LOG] matrix is not yet sorted, sorting host matrix
[OGL LOG] sort_host_mtx_sparsity_pattern : 0 ms
[OGL LOG] sort_host_mtx : 0 ms
[OGL LOG] init_preconditioner : 0 ms
[OGL LOG] solve : 1 ms
nonehipGKOBiCGStab:  Solving for p, Initial residual = 0.000464271, Final residual = 9.5385e-05, No Iterations 3
linear solve p 1658
time step continuity errors : sum local = 1.0617e-07, global = -2.10766e-21, cumulative = 8.90117e-20
ExecutionTime = 0.62 s  ClockTime = 0 s

Time = 0.009

Courant Number mean: 0.00348093 max: 0.00836828
DILUPBiCGStab:  Solving for Ux, Initial residual = 0.0342331, Final residual = 1.65767e-31, No Iterations 5
DILUPBiCGStab:  Solving for Uy, Initial residual = 0.0432951, Final residual = 1.40369e-31, No Iterations 5
DILUPBiCGStab:  Solving for Uz, Initial residual = 0.0758047, Final residual = 5.8459e-31, No Iterations 5
linear solve U 130
[OGL LOG] init_host_sparsity_pattern : 0 ms
[OGL LOG] matrix not stored update host matrix
[OGL LOG] update_host_mtx : 0 ms
[OGL LOG] matrix is not yet sorted, sorting host matrix
[OGL LOG] sort_host_mtx_sparsity_pattern : 0 ms
[OGL LOG] sort_host_mtx : 0 ms
[OGL LOG] init_preconditioner : 0 ms
[OGL LOG] solve : 4 ms
nonehipGKOBiCGStab:  Solving for p, Initial residual = 0.00873186, Final residual = 8.23352e-05, No Iterations 15
linear solve p 5019
time step continuity errors : sum local = 9.95966e-08, global = -1.13489e-21, cumulative = 8.78768e-20
[OGL LOG] init_host_sparsity_pattern : 0 ms
[OGL LOG] matrix not stored update host matrix
[OGL LOG] update_host_mtx : 0 ms
[OGL LOG] matrix is not yet sorted, sorting host matrix
[OGL LOG] sort_host_mtx_sparsity_pattern : 0 ms
[OGL LOG] sort_host_mtx : 0 ms
[OGL LOG] init_preconditioner : 0 ms
[OGL LOG] solve : 1 ms
nonehipGKOBiCGStab:  Solving for p, Initial residual = 0.000417472, Final residual = 8.46674e-05, No Iterations 3
linear solve p 1654
time step continuity errors : sum local = 9.60471e-08, global = 9.48942e-21, cumulative = 9.73662e-20
ExecutionTime = 0.63 s  ClockTime = 0 s

Time = 0.01

Courant Number mean: 0.00376373 max: 0.00908825
DILUPBiCGStab:  Solving for Ux, Initial residual = 0.0290517, Final residual = 1.43119e-31, No Iterations 5
DILUPBiCGStab:  Solving for Uy, Initial residual = 0.0371211, Final residual = 1.19447e-31, No Iterations 5
DILUPBiCGStab:  Solving for Uz, Initial residual = 0.0677636, Final residual = 5.05546e-31, No Iterations 5
linear solve U 121
[OGL LOG] init_host_sparsity_pattern : 0 ms
[OGL LOG] matrix not stored update host matrix
[OGL LOG] update_host_mtx : 0 ms
[OGL LOG] matrix is not yet sorted, sorting host matrix
[OGL LOG] sort_host_mtx_sparsity_pattern : 0 ms
[OGL LOG] sort_host_mtx : 0 ms
[OGL LOG] init_preconditioner : 0 ms
[OGL LOG] solve : 4 ms
nonehipGKOBiCGStab:  Solving for p, Initial residual = 0.00733502, Final residual = 9.73086e-05, No Iterations 14
linear solve p 4730
time step continuity errors : sum local = 1.19351e-07, global = -3.60517e-20, cumulative = 6.13145e-20
[OGL LOG] init_host_sparsity_pattern : 0 ms
[OGL LOG] matrix not stored update host matrix
[OGL LOG] update_host_mtx : 0 ms
[OGL LOG] matrix is not yet sorted, sorting host matrix
[OGL LOG] sort_host_mtx_sparsity_pattern : 0 ms
[OGL LOG] sort_host_mtx : 0 ms
[OGL LOG] init_preconditioner : 0 ms
[OGL LOG] solve : 1 ms
nonehipGKOBiCGStab:  Solving for p, Initial residual = 0.000386205, Final residual = 9.31626e-05, No Iterations 3
linear solve p 1668
time step continuity errors : sum local = 1.12334e-07, global = 5.68272e-20, cumulative = 1.18142e-19
ExecutionTime = 0.65 s  ClockTime = 0 s

End

