/*---------------------------------------------------------------------------*\
  =========                 |
  \\      /  F ield         | OpenFOAM: The Open Source CFD Toolbox
   \\    /   O peration     | Website:  https://openfoam.org
    \\  /    A nd           | Version:  8
     \\/     M anipulation  |
\*---------------------------------------------------------------------------*/
Build  : 8-40a5a48f630f
Exec   : icoFoam
Date   : Jul 28 2021
Time   : 12:13:30
Host   : "uc2n446.localdomain"
PID    : 408609
I/O    : uncollated
Case   : /pfs/data5/home/kit/scc/nq7776/code/OBR/lidDrivenCavity3D/Variation_mesh/40/Variation_matrix_solver/BiCGStab_NoPrecond_OMP/base
nProcs : 1
sigFpe : Enabling floating point exception trapping (FOAM_SIGFPE).
fileModificationChecking : Monitoring run-time modified files using timeStampMaster (fileModificationSkew 10)
allowSystemOperations : Allowing user-supplied system call operations

// * * * * * * * * * * * * * * * * * * * * * * * * * * * * * * * * * * * * * //
Create time

Create mesh for time = 0

Reading transportProperties

Reading field p

Reading field U

Reading/calculating face flux field phi


Starting time loop

Time = 0.001

Courant Number mean: 0 max: 0
nonePBiCGStab:  Solving for Ux, Initial residual = 1, Final residual = 0.0197517, No Iterations 5
nonePBiCGStab:  Solving for Uy, Initial residual = 0, Final residual = 0, No Iterations 0
nonePBiCGStab:  Solving for Uz, Initial residual = 0, Final residual = 0, No Iterations 0
linear solve U 14
[OGL LOG] init_host_sparsity_pattern : 18 ms
[OGL LOG] matrix not stored update host matrix
[OGL LOG] update_host_mtx : 9 ms
[OGL LOG] matrix is not yet sorted, compute sorting idxs
[OGL LOG] compute_sort : 482 ms
[OGL LOG] matrix is not yet sorted, sorting host matrix
[OGL LOG] sort_host_mtx_sparsity_pattern : 13 ms
[OGL LOG] sort_host_mtx : 7 ms
[OGL LOG] init_preconditioner : 0 ms
[OGL LOG] solve : 280 ms
noneompGKOBiCGStab:  Solving for p, Initial residual = 1, Final residual = 8.58855e-05, No Iterations 253
linear solve p 828
time step continuity errors : sum local = 1.77268e-07, global = -1.80139e-20, cumulative = -1.80139e-20
[OGL LOG] init_host_sparsity_pattern : 18 ms
[OGL LOG] matrix not stored update host matrix
[OGL LOG] update_host_mtx : 9 ms
[OGL LOG] matrix is not yet sorted, sorting host matrix
[OGL LOG] sort_host_mtx_sparsity_pattern : 13 ms
[OGL LOG] sort_host_mtx : 6 ms
[OGL LOG] init_preconditioner : 0 ms
[OGL LOG] solve : 271 ms
noneompGKOBiCGStab:  Solving for p, Initial residual = 0.598507, Final residual = 7.97357e-05, No Iterations 253
linear solve p 326
time step continuity errors : sum local = 4.65954e-07, global = 3.68736e-21, cumulative = -1.43266e-20
ExecutionTime = 12.23 s  ClockTime = 1 s

Time = 0.002

Courant Number mean: 0.0210258 max: 0.237017
nonePBiCGStab:  Solving for Ux, Initial residual = 0.177779, Final residual = 0.00671706, No Iterations 5
nonePBiCGStab:  Solving for Uy, Initial residual = 0.294139, Final residual = 0.00774648, No Iterations 5
nonePBiCGStab:  Solving for Uz, Initial residual = 0.945924, Final residual = 0.0379305, No Iterations 5
linear solve U 27
[OGL LOG] init_host_sparsity_pattern : 17 ms
[OGL LOG] matrix not stored update host matrix
[OGL LOG] update_host_mtx : 9 ms
[OGL LOG] matrix is not yet sorted, sorting host matrix
[OGL LOG] sort_host_mtx_sparsity_pattern : 13 ms
[OGL LOG] sort_host_mtx : 6 ms
[OGL LOG] init_preconditioner : 0 ms
[OGL LOG] solve : 252 ms
noneompGKOBiCGStab:  Solving for p, Initial residual = 0.458069, Final residual = 3.85953e-05, No Iterations 237
linear solve p 305
time step continuity errors : sum local = 1.22448e-06, global = 1.60768e-21, cumulative = -1.27189e-20
[OGL LOG] init_host_sparsity_pattern : 16 ms
[OGL LOG] matrix not stored update host matrix
[OGL LOG] update_host_mtx : 8 ms
[OGL LOG] matrix is not yet sorted, sorting host matrix
[OGL LOG] sort_host_mtx_sparsity_pattern : 12 ms
[OGL LOG] sort_host_mtx : 6 ms
[OGL LOG] init_preconditioner : 0 ms
[OGL LOG] solve : 259 ms
noneompGKOBiCGStab:  Solving for p, Initial residual = 0.36201, Final residual = 9.75804e-05, No Iterations 235
linear solve p 314
time step continuity errors : sum local = 5.28083e-07, global = 1.09942e-20, cumulative = -1.72468e-21
ExecutionTime = 22.87 s  ClockTime = 2 s

Time = 0.003

Courant Number mean: 0.0321034 max: 0.305906
nonePBiCGStab:  Solving for Ux, Initial residual = 0.0656085, Final residual = 0.00127693, No Iterations 5
nonePBiCGStab:  Solving for Uy, Initial residual = 0.108154, Final residual = 0.00192117, No Iterations 5
nonePBiCGStab:  Solving for Uz, Initial residual = 0.200317, Final residual = 0.00954413, No Iterations 5
linear solve U 27
[OGL LOG] init_host_sparsity_pattern : 17 ms
[OGL LOG] matrix not stored update host matrix
[OGL LOG] update_host_mtx : 9 ms
[OGL LOG] matrix is not yet sorted, sorting host matrix
[OGL LOG] sort_host_mtx_sparsity_pattern : 14 ms
[OGL LOG] sort_host_mtx : 6 ms
[OGL LOG] init_preconditioner : 0 ms
[OGL LOG] solve : 231 ms
noneompGKOBiCGStab:  Solving for p, Initial residual = 0.165203, Final residual = 8.30443e-05, No Iterations 217
linear solve p 288
time step continuity errors : sum local = 1.05825e-07, global = 1.08031e-21, cumulative = -6.44374e-22
[OGL LOG] init_host_sparsity_pattern : 16 ms
[OGL LOG] matrix not stored update host matrix
[OGL LOG] update_host_mtx : 8 ms
[OGL LOG] matrix is not yet sorted, sorting host matrix
[OGL LOG] sort_host_mtx_sparsity_pattern : 13 ms
[OGL LOG] sort_host_mtx : 6 ms
[OGL LOG] init_preconditioner : 0 ms
[OGL LOG] solve : 109 ms
noneompGKOBiCGStab:  Solving for p, Initial residual = 0.129007, Final residual = 9.92875e-05, No Iterations 102
linear solve p 161
time step continuity errors : sum local = 1.11636e-07, global = -9.7761e-21, cumulative = -1.04205e-20
ExecutionTime = 30.09 s  ClockTime = 2 s

Time = 0.004

Courant Number mean: 0.0386754 max: 0.327549
nonePBiCGStab:  Solving for Ux, Initial residual = 0.0389073, Final residual = 0.000588242, No Iterations 5
nonePBiCGStab:  Solving for Uy, Initial residual = 0.0669999, Final residual = 0.000658844, No Iterations 5
nonePBiCGStab:  Solving for Uz, Initial residual = 0.133642, Final residual = 0.00448199, No Iterations 5
linear solve U 27
[OGL LOG] init_host_sparsity_pattern : 17 ms
[OGL LOG] matrix not stored update host matrix
[OGL LOG] update_host_mtx : 9 ms
[OGL LOG] matrix is not yet sorted, sorting host matrix
[OGL LOG] sort_host_mtx_sparsity_pattern : 13 ms
[OGL LOG] sort_host_mtx : 6 ms
[OGL LOG] init_preconditioner : 0 ms
[OGL LOG] solve : 236 ms
noneompGKOBiCGStab:  Solving for p, Initial residual = 0.0862961, Final residual = 9.72905e-05, No Iterations 221
linear solve p 289
time step continuity errors : sum local = 4.63202e-07, global = 1.67737e-21, cumulative = -8.74311e-21
[OGL LOG] init_host_sparsity_pattern : 17 ms
[OGL LOG] matrix not stored update host matrix
[OGL LOG] update_host_mtx : 9 ms
[OGL LOG] matrix is not yet sorted, sorting host matrix
[OGL LOG] sort_host_mtx_sparsity_pattern : 13 ms
[OGL LOG] sort_host_mtx : 6 ms
[OGL LOG] init_preconditioner : 0 ms
[OGL LOG] solve : 246 ms
noneompGKOBiCGStab:  Solving for p, Initial residual = 0.0670408, Final residual = 9.9962e-05, No Iterations 209
linear solve p 299
time step continuity errors : sum local = 1.88217e-07, global = 5.46615e-21, cumulative = -3.27695e-21
ExecutionTime = 40.14 s  ClockTime = 3 s

Time = 0.005

Courant Number mean: 0.0434796 max: 0.337868
nonePBiCGStab:  Solving for Ux, Initial residual = 0.0269226, Final residual = 0.000351825, No Iterations 5
nonePBiCGStab:  Solving for Uy, Initial residual = 0.0468776, Final residual = 0.000549774, No Iterations 5
nonePBiCGStab:  Solving for Uz, Initial residual = 0.0970312, Final residual = 0.00306251, No Iterations 5
linear solve U 27
[OGL LOG] init_host_sparsity_pattern : 17 ms
[OGL LOG] matrix not stored update host matrix
[OGL LOG] update_host_mtx : 9 ms
[OGL LOG] matrix is not yet sorted, sorting host matrix
[OGL LOG] sort_host_mtx_sparsity_pattern : 13 ms
[OGL LOG] sort_host_mtx : 6 ms
[OGL LOG] init_preconditioner : 0 ms
[OGL LOG] solve : 233 ms
noneompGKOBiCGStab:  Solving for p, Initial residual = 0.0452215, Final residual = 9.61983e-05, No Iterations 197
linear solve p 287
time step continuity errors : sum local = 2.725e-07, global = -5.41897e-21, cumulative = -8.69592e-21
[OGL LOG] init_host_sparsity_pattern : 17 ms
[OGL LOG] matrix not stored update host matrix
[OGL LOG] update_host_mtx : 9 ms
[OGL LOG] matrix is not yet sorted, sorting host matrix
[OGL LOG] sort_host_mtx_sparsity_pattern : 13 ms
[OGL LOG] sort_host_mtx : 6 ms
[OGL LOG] init_preconditioner : 0 ms
[OGL LOG] solve : 100 ms
noneompGKOBiCGStab:  Solving for p, Initial residual = 0.0363415, Final residual = 7.74859e-05, No Iterations 84
linear solve p 153
time step continuity errors : sum local = 7.49168e-08, global = 4.957e-21, cumulative = -3.73892e-21
ExecutionTime = 47.21 s  ClockTime = 4 s

Time = 0.006

Courant Number mean: 0.0471981 max: 0.344026
nonePBiCGStab:  Solving for Ux, Initial residual = 0.0205144, Final residual = 0.00020149, No Iterations 5
nonePBiCGStab:  Solving for Uy, Initial residual = 0.0356002, Final residual = 0.000293413, No Iterations 5
nonePBiCGStab:  Solving for Uz, Initial residual = 0.0723574, Final residual = 0.00201895, No Iterations 5
linear solve U 27
[OGL LOG] init_host_sparsity_pattern : 17 ms
[OGL LOG] matrix not stored update host matrix
[OGL LOG] update_host_mtx : 9 ms
[OGL LOG] matrix is not yet sorted, sorting host matrix
[OGL LOG] sort_host_mtx_sparsity_pattern : 13 ms
[OGL LOG] sort_host_mtx : 6 ms
[OGL LOG] init_preconditioner : 0 ms
[OGL LOG] solve : 260 ms
noneompGKOBiCGStab:  Solving for p, Initial residual = 0.030592, Final residual = 9.67586e-05, No Iterations 213
linear solve p 315
time step continuity errors : sum local = 2.71272e-07, global = -1.51588e-20, cumulative = -1.88977e-20
[OGL LOG] init_host_sparsity_pattern : 17 ms
[OGL LOG] matrix not stored update host matrix
[OGL LOG] update_host_mtx : 9 ms
[OGL LOG] matrix is not yet sorted, sorting host matrix
[OGL LOG] sort_host_mtx_sparsity_pattern : 13 ms
[OGL LOG] sort_host_mtx : 6 ms
[OGL LOG] init_preconditioner : 0 ms
[OGL LOG] solve : 103 ms
noneompGKOBiCGStab:  Solving for p, Initial residual = 0.0251345, Final residual = 9.96441e-05, No Iterations 87
linear solve p 158
time step continuity errors : sum local = 1.1133e-07, global = 1.13609e-20, cumulative = -7.53677e-21
ExecutionTime = 54.9 s  ClockTime = 4 s

Time = 0.007

Courant Number mean: 0.0502306 max: 0.348255
nonePBiCGStab:  Solving for Ux, Initial residual = 0.0162148, Final residual = 0.000147547, No Iterations 5
nonePBiCGStab:  Solving for Uy, Initial residual = 0.0287059, Final residual = 0.000225248, No Iterations 5
nonePBiCGStab:  Solving for Uz, Initial residual = 0.0597953, Final residual = 0.00157609, No Iterations 5
linear solve U 27
[OGL LOG] init_host_sparsity_pattern : 17 ms
[OGL LOG] matrix not stored update host matrix
[OGL LOG] update_host_mtx : 9 ms
[OGL LOG] matrix is not yet sorted, sorting host matrix
[OGL LOG] sort_host_mtx_sparsity_pattern : 13 ms
[OGL LOG] sort_host_mtx : 6 ms
[OGL LOG] init_preconditioner : 0 ms
[OGL LOG] solve : 248 ms
noneompGKOBiCGStab:  Solving for p, Initial residual = 0.0238432, Final residual = 8.55432e-05, No Iterations 209
linear solve p 302
time step continuity errors : sum local = 6.68169e-08, global = -1.30274e-20, cumulative = -2.05642e-20
[OGL LOG] init_host_sparsity_pattern : 16 ms
[OGL LOG] matrix not stored update host matrix
[OGL LOG] update_host_mtx : 9 ms
[OGL LOG] matrix is not yet sorted, sorting host matrix
[OGL LOG] sort_host_mtx_sparsity_pattern : 13 ms
[OGL LOG] sort_host_mtx : 6 ms
[OGL LOG] init_preconditioner : 0 ms
[OGL LOG] solve : 101 ms
noneompGKOBiCGStab:  Solving for p, Initial residual = 0.0198185, Final residual = 9.45214e-05, No Iterations 85
linear solve p 155
time step continuity errors : sum local = 1.20115e-07, global = 5.59316e-21, cumulative = -1.4971e-20
ExecutionTime = 62.3 s  ClockTime = 5 s

Time = 0.008

Courant Number mean: 0.0528008 max: 0.35137
nonePBiCGStab:  Solving for Ux, Initial residual = 0.0134219, Final residual = 0.000110869, No Iterations 5
nonePBiCGStab:  Solving for Uy, Initial residual = 0.0235348, Final residual = 0.000164651, No Iterations 5
nonePBiCGStab:  Solving for Uz, Initial residual = 0.0498814, Final residual = 0.00128495, No Iterations 5
linear solve U 26
[OGL LOG] init_host_sparsity_pattern : 16 ms
[OGL LOG] matrix not stored update host matrix
[OGL LOG] update_host_mtx : 9 ms
[OGL LOG] matrix is not yet sorted, sorting host matrix
[OGL LOG] sort_host_mtx_sparsity_pattern : 13 ms
[OGL LOG] sort_host_mtx : 6 ms
[OGL LOG] init_preconditioner : 0 ms
[OGL LOG] solve : 255 ms
noneompGKOBiCGStab:  Solving for p, Initial residual = 0.0189525, Final residual = 9.63352e-05, No Iterations 215
linear solve p 308
time step continuity errors : sum local = 6.96159e-08, global = 1.36475e-20, cumulative = -1.32354e-21
[OGL LOG] init_host_sparsity_pattern : 16 ms
[OGL LOG] matrix not stored update host matrix
[OGL LOG] update_host_mtx : 9 ms
[OGL LOG] matrix is not yet sorted, sorting host matrix
[OGL LOG] sort_host_mtx_sparsity_pattern : 13 ms
[OGL LOG] sort_host_mtx : 6 ms
[OGL LOG] init_preconditioner : 0 ms
[OGL LOG] solve : 176 ms
noneompGKOBiCGStab:  Solving for p, Initial residual = 0.0159646, Final residual = 9.98306e-05, No Iterations 147
linear solve p 229
time step continuity errors : sum local = 1.31954e-07, global = -1.15159e-20, cumulative = -1.28395e-20
ExecutionTime = 71.34 s  ClockTime = 5 s

Time = 0.009

Courant Number mean: 0.0549868 max: 0.35378
nonePBiCGStab:  Solving for Ux, Initial residual = 0.0111995, Final residual = 9.16276e-05, No Iterations 5
nonePBiCGStab:  Solving for Uy, Initial residual = 0.0200762, Final residual = 0.000155121, No Iterations 5
nonePBiCGStab:  Solving for Uz, Initial residual = 0.0448986, Final residual = 0.00120623, No Iterations 5
linear solve U 27
[OGL LOG] init_host_sparsity_pattern : 16 ms
[OGL LOG] matrix not stored update host matrix
[OGL LOG] update_host_mtx : 9 ms
[OGL LOG] matrix is not yet sorted, sorting host matrix
[OGL LOG] sort_host_mtx_sparsity_pattern : 13 ms
[OGL LOG] sort_host_mtx : 6 ms
[OGL LOG] init_preconditioner : 0 ms
[OGL LOG] solve : 251 ms
noneompGKOBiCGStab:  Solving for p, Initial residual = 0.0162024, Final residual = 9.3671e-05, No Iterations 199
linear solve p 304
time step continuity errors : sum local = 6.17472e-08, global = 6.69336e-21, cumulative = -6.14612e-21
[OGL LOG] init_host_sparsity_pattern : 16 ms
[OGL LOG] matrix not stored update host matrix
[OGL LOG] update_host_mtx : 9 ms
[OGL LOG] matrix is not yet sorted, sorting host matrix
[OGL LOG] sort_host_mtx_sparsity_pattern : 13 ms
[OGL LOG] sort_host_mtx : 6 ms
[OGL LOG] init_preconditioner : 0 ms
[OGL LOG] solve : 204 ms
noneompGKOBiCGStab:  Solving for p, Initial residual = 0.0136944, Final residual = 9.89972e-05, No Iterations 162
linear solve p 257
time step continuity errors : sum local = 1.25088e-07, global = -4.65623e-21, cumulative = -1.08023e-20
ExecutionTime = 80.87 s  ClockTime = 6 s

Time = 0.01

Courant Number mean: 0.0568694 max: 0.355708
nonePBiCGStab:  Solving for Ux, Initial residual = 0.00965557, Final residual = 6.44814e-05, No Iterations 5
nonePBiCGStab:  Solving for Uy, Initial residual = 0.0170598, Final residual = 0.000131197, No Iterations 5
nonePBiCGStab:  Solving for Uz, Initial residual = 0.0379199, Final residual = 0.000995194, No Iterations 5
linear solve U 27
[OGL LOG] init_host_sparsity_pattern : 16 ms
[OGL LOG] matrix not stored update host matrix
[OGL LOG] update_host_mtx : 9 ms
[OGL LOG] matrix is not yet sorted, sorting host matrix
[OGL LOG] sort_host_mtx_sparsity_pattern : 13 ms
[OGL LOG] sort_host_mtx : 6 ms
[OGL LOG] init_preconditioner : 0 ms
[OGL LOG] solve : 234 ms
noneompGKOBiCGStab:  Solving for p, Initial residual = 0.0138366, Final residual = 9.83864e-05, No Iterations 201
linear solve p 288
time step continuity errors : sum local = 7.70942e-08, global = -1.19435e-21, cumulative = -1.19967e-20
[OGL LOG] init_host_sparsity_pattern : 16 ms
[OGL LOG] matrix not stored update host matrix
[OGL LOG] update_host_mtx : 9 ms
[OGL LOG] matrix is not yet sorted, sorting host matrix
[OGL LOG] sort_host_mtx_sparsity_pattern : 13 ms
[OGL LOG] sort_host_mtx : 6 ms
[OGL LOG] init_preconditioner : 0 ms
[OGL LOG] solve : 178 ms
noneompGKOBiCGStab:  Solving for p, Initial residual = 0.0117875, Final residual = 9.97121e-05, No Iterations 159
linear solve p 233
time step continuity errors : sum local = 1.57752e-07, global = -1.02735e-20, cumulative = -2.22702e-20
ExecutionTime = 89.54 s  ClockTime = 6 s

End

