/*---------------------------------------------------------------------------*\
  =========                 |
  \\      /  F ield         | OpenFOAM: The Open Source CFD Toolbox
   \\    /   O peration     | Website:  https://openfoam.org
    \\  /    A nd           | Version:  8
     \\/     M anipulation  |
\*---------------------------------------------------------------------------*/
Build  : 8-ef60d22ea792
Exec   : icoFoam
Date   : Jul 29 2021
Time   : 07:51:04
Host   : "nla-gpu2.ianm.kit.edu"
PID    : 1965549
I/O    : uncollated
Case   : /home/greole/code/OBR/lidDrivenCavity3D/Variation_mesh/55/Variation_matrix_solver/CG_NoPrecond_Serial/base
nProcs : 1
sigFpe : Enabling floating point exception trapping (FOAM_SIGFPE).
fileModificationChecking : Monitoring run-time modified files using timeStampMaster (fileModificationSkew 10)
allowSystemOperations : Allowing user-supplied system call operations

// * * * * * * * * * * * * * * * * * * * * * * * * * * * * * * * * * * * * * //
Create time

Create mesh for time = 0

Reading transportProperties

Reading field p

Reading field U

Reading/calculating face flux field phi


Starting time loop

Time = 0.001

Courant Number mean: 0 max: 0
DILUPBiCGStab:  Solving for Ux, Initial residual = 1, Final residual = 0.000272743, No Iterations 5
DILUPBiCGStab:  Solving for Uy:  solution singularity
DILUPBiCGStab:  Solving for Uz:  solution singularity
linear solve U 67317
nonePCG:  Solving for p, Initial residual = 1, Final residual = 9.38566e-05, No Iterations 429
linear solve p 735958
time step continuity errors : sum local = 5.47083e-08, global = -8.50755e-21, cumulative = -8.50755e-21
nonePCG:  Solving for p, Initial residual = 0.678586, Final residual = 9.45165e-05, No Iterations 423
linear solve p 733965
time step continuity errors : sum local = 7.64368e-08, global = 7.59275e-21, cumulative = -9.14806e-22
ExecutionTime = 2.39 s  ClockTime = 3 s

Time = 0.002

Courant Number mean: 0.0305076 max: 0.37634
DILUPBiCGStab:  Solving for Ux, Initial residual = 0.162208, Final residual = 6.90608e-05, No Iterations 5
DILUPBiCGStab:  Solving for Uy, Initial residual = 0.327328, Final residual = 0.000109949, No Iterations 5
DILUPBiCGStab:  Solving for Uz, Initial residual = 0.977076, Final residual = 0.000434773, No Iterations 5
linear solve U 125083
nonePCG:  Solving for p, Initial residual = 0.580227, Final residual = 9.09053e-05, No Iterations 420
linear solve p 717095
time step continuity errors : sum local = 7.37319e-08, global = 6.33597e-21, cumulative = 5.42116e-21
nonePCG:  Solving for p, Initial residual = 0.497858, Final residual = 9.41152e-05, No Iterations 418
linear solve p 724062
time step continuity errors : sum local = 7.86833e-08, global = -1.05659e-20, cumulative = -5.14472e-21
ExecutionTime = 4.03 s  ClockTime = 4 s

Time = 0.003

Courant Number mean: 0.0458491 max: 0.461219
DILUPBiCGStab:  Solving for Ux, Initial residual = 0.0523896, Final residual = 2.20661e-05, No Iterations 5
DILUPBiCGStab:  Solving for Uy, Initial residual = 0.0999326, Final residual = 3.09416e-05, No Iterations 5
DILUPBiCGStab:  Solving for Uz, Initial residual = 0.18446, Final residual = 6.16842e-05, No Iterations 5
linear solve U 127116
nonePCG:  Solving for p, Initial residual = 0.391078, Final residual = 9.44102e-05, No Iterations 407
linear solve p 692741
time step continuity errors : sum local = 5.37714e-08, global = -4.18668e-21, cumulative = -9.3314e-21
nonePCG:  Solving for p, Initial residual = 0.336918, Final residual = 9.4081e-05, No Iterations 405
linear solve p 701403
time step continuity errors : sum local = 5.23124e-08, global = 3.37587e-20, cumulative = 2.44273e-20
ExecutionTime = 5.63 s  ClockTime = 6 s

Time = 0.004

Courant Number mean: 0.0544851 max: 0.479439
DILUPBiCGStab:  Solving for Ux, Initial residual = 0.0312278, Final residual = 6.43421e-06, No Iterations 5
DILUPBiCGStab:  Solving for Uy, Initial residual = 0.0645981, Final residual = 1.16459e-05, No Iterations 5
DILUPBiCGStab:  Solving for Uz, Initial residual = 0.136293, Final residual = 4.34152e-05, No Iterations 5
linear solve U 125259
nonePCG:  Solving for p, Initial residual = 0.194055, Final residual = 8.95772e-05, No Iterations 397
linear solve p 692080
time step continuity errors : sum local = 4.76458e-08, global = 8.83887e-21, cumulative = 3.32662e-20
nonePCG:  Solving for p, Initial residual = 0.156019, Final residual = 9.75433e-05, No Iterations 394
linear solve p 672290
time step continuity errors : sum local = 5.24908e-08, global = 6.01172e-21, cumulative = 3.92779e-20
ExecutionTime = 7.19 s  ClockTime = 8 s

Time = 0.005

Courant Number mean: 0.0609396 max: 0.489044
DILUPBiCGStab:  Solving for Ux, Initial residual = 0.0220036, Final residual = 5.48015e-06, No Iterations 5
DILUPBiCGStab:  Solving for Uy, Initial residual = 0.0440294, Final residual = 7.38321e-06, No Iterations 5
DILUPBiCGStab:  Solving for Uz, Initial residual = 0.0731713, Final residual = 1.84286e-05, No Iterations 5
linear solve U 126271
nonePCG:  Solving for p, Initial residual = 0.107415, Final residual = 9.39656e-05, No Iterations 382
linear solve p 650315
time step continuity errors : sum local = 4.68632e-08, global = -1.25137e-20, cumulative = 2.67642e-20
nonePCG:  Solving for p, Initial residual = 0.0879596, Final residual = 9.79388e-05, No Iterations 380
linear solve p 656766
time step continuity errors : sum local = 4.87624e-08, global = 2.423e-21, cumulative = 2.91872e-20
ExecutionTime = 8.7 s  ClockTime = 9 s

Time = 0.006

Courant Number mean: 0.0659409 max: 0.494871
DILUPBiCGStab:  Solving for Ux, Initial residual = 0.016694, Final residual = 3.35451e-06, No Iterations 5
DILUPBiCGStab:  Solving for Uy, Initial residual = 0.0337606, Final residual = 2.87267e-06, No Iterations 5
DILUPBiCGStab:  Solving for Uz, Initial residual = 0.0594752, Final residual = 1.13582e-05, No Iterations 5
linear solve U 125047
nonePCG:  Solving for p, Initial residual = 0.0640253, Final residual = 9.92096e-05, No Iterations 190
linear solve p 333410
time step continuity errors : sum local = 5.95252e-08, global = -1.76289e-20, cumulative = 1.15583e-20
nonePCG:  Solving for p, Initial residual = 0.0524306, Final residual = 9.83035e-05, No Iterations 179
linear solve p 308948
time step continuity errors : sum local = 5.19508e-08, global = -7.12026e-21, cumulative = 4.43808e-21
ExecutionTime = 9.54 s  ClockTime = 10 s

Time = 0.007

Courant Number mean: 0.0700482 max: 0.498905
DILUPBiCGStab:  Solving for Ux, Initial residual = 0.0133051, Final residual = 1.90376e-06, No Iterations 5
DILUPBiCGStab:  Solving for Uy, Initial residual = 0.0270336, Final residual = 2.35217e-06, No Iterations 5
DILUPBiCGStab:  Solving for Uz, Initial residual = 0.0488213, Final residual = 6.98687e-06, No Iterations 5
linear solve U 125265
nonePCG:  Solving for p, Initial residual = 0.0404665, Final residual = 9.56796e-05, No Iterations 176
linear solve p 302145
time step continuity errors : sum local = 4.95637e-08, global = -4.20716e-21, cumulative = 2.30921e-22
nonePCG:  Solving for p, Initial residual = 0.0342458, Final residual = 9.4689e-05, No Iterations 174
linear solve p 304941
time step continuity errors : sum local = 4.79625e-08, global = 4.74912e-21, cumulative = 4.98004e-21
ExecutionTime = 10.33 s  ClockTime = 11 s

Time = 0.008

Courant Number mean: 0.0734868 max: 0.501898
DILUPBiCGStab:  Solving for Ux, Initial residual = 0.0109582, Final residual = 1.38103e-06, No Iterations 5
DILUPBiCGStab:  Solving for Uy, Initial residual = 0.0223245, Final residual = 1.49624e-06, No Iterations 5
DILUPBiCGStab:  Solving for Uz, Initial residual = 0.0409201, Final residual = 4.59514e-06, No Iterations 5
linear solve U 124874
nonePCG:  Solving for p, Initial residual = 0.0278697, Final residual = 9.58905e-05, No Iterations 176
linear solve p 310120
time step continuity errors : sum local = 5.53915e-08, global = 5.27677e-22, cumulative = 5.50772e-21
nonePCG:  Solving for p, Initial residual = 0.024022, Final residual = 9.26242e-05, No Iterations 170
linear solve p 295245
time step continuity errors : sum local = 4.89723e-08, global = 1.80943e-20, cumulative = 2.3602e-20
ExecutionTime = 11.13 s  ClockTime = 12 s

Time = 0.009

Courant Number mean: 0.0764171 max: 0.50422
DILUPBiCGStab:  Solving for Ux, Initial residual = 0.0092186, Final residual = 5.8656e-07, No Iterations 5
DILUPBiCGStab:  Solving for Uy, Initial residual = 0.018927, Final residual = 1.16527e-06, No Iterations 5
DILUPBiCGStab:  Solving for Uz, Initial residual = 0.0353098, Final residual = 3.47538e-06, No Iterations 5
linear solve U 125232
nonePCG:  Solving for p, Initial residual = 0.0215294, Final residual = 8.93249e-05, No Iterations 170
linear solve p 292486
time step continuity errors : sum local = 4.6541e-08, global = -1.70858e-20, cumulative = 6.5162e-21
nonePCG:  Solving for p, Initial residual = 0.0189611, Final residual = 9.79971e-05, No Iterations 166
linear solve p 289985
time step continuity errors : sum local = 5.0323e-08, global = -7.6586e-21, cumulative = -1.14241e-21
ExecutionTime = 11.91 s  ClockTime = 12 s

Time = 0.01

Courant Number mean: 0.0789767 max: 0.506078
DILUPBiCGStab:  Solving for Ux, Initial residual = 0.00789645, Final residual = 4.50295e-07, No Iterations 5
DILUPBiCGStab:  Solving for Uy, Initial residual = 0.0162608, Final residual = 9.77424e-07, No Iterations 5
DILUPBiCGStab:  Solving for Uz, Initial residual = 0.0307004, Final residual = 2.53795e-06, No Iterations 5
linear solve U 125190
nonePCG:  Solving for p, Initial residual = 0.01668, Final residual = 9.79266e-05, No Iterations 167
linear solve p 294268
time step continuity errors : sum local = 5.53948e-08, global = -2.92798e-21, cumulative = -4.07039e-21
nonePCG:  Solving for p, Initial residual = 0.0149901, Final residual = 9.54508e-05, No Iterations 164
linear solve p 283510
time step continuity errors : sum local = 5.07087e-08, global = -2.39815e-20, cumulative = -2.80518e-20
ExecutionTime = 12.68 s  ClockTime = 13 s

End

