/*---------------------------------------------------------------------------*\
  =========                 |
  \\      /  F ield         | OpenFOAM: The Open Source CFD Toolbox
   \\    /   O peration     | Website:  https://openfoam.org
    \\  /    A nd           | Version:  8
     \\/     M anipulation  |
\*---------------------------------------------------------------------------*/
Build  : 8-ef60d22ea792
Exec   : icoFoam
Date   : Jul 28 2021
Time   : 21:56:27
Host   : "uc2n452.localdomain"
PID    : 1908272
I/O    : uncollated
Case   : /pfs/data5/home/kit/scc/nq7776/code/OBR/lidDrivenCavity3D/Variation_mesh/15/Variation_matrix_solver/BiCGStab_NoPrecond_OMP/base
nProcs : 1
sigFpe : Enabling floating point exception trapping (FOAM_SIGFPE).
fileModificationChecking : Monitoring run-time modified files using timeStampMaster (fileModificationSkew 10)
allowSystemOperations : Allowing user-supplied system call operations

// * * * * * * * * * * * * * * * * * * * * * * * * * * * * * * * * * * * * * //
Create time

Create mesh for time = 0

Reading transportProperties

Reading field p

Reading field U

Reading/calculating face flux field phi


Starting time loop

Time = 0.001

Courant Number mean: 0 max: 0
DILUPBiCGStab:  Solving for Ux, Initial residual = 1, Final residual = 1.1028e-13, No Iterations 5
DILUPBiCGStab:  Solving for Uy:  solution singularity
DILUPBiCGStab:  Solving for Uz:  solution singularity
linear solve U 1308
[OGL LOG] init_host_sparsity_pattern : 1 ms
[OGL LOG] matrix not stored update host matrix
[OGL LOG] update_host_mtx : 0 ms
[OGL LOG] matrix is not yet sorted, compute sorting idxs
[OGL LOG] compute_sort : 21 ms
[OGL LOG] matrix is not yet sorted, sorting host matrix
[OGL LOG] sort_host_mtx_sparsity_pattern : 0 ms
[OGL LOG] sort_host_mtx : 0 ms
[OGL LOG] init_preconditioner : 0 ms
[OGL LOG] solve : 23 ms
noneompGKOBiCGStab:  Solving for p, Initial residual = 1, Final residual = 3.62624e-05, No Iterations 98
linear solve p 49927
time step continuity errors : sum local = 3.06658e-07, global = -1.88779e-20, cumulative = -1.88779e-20
[OGL LOG] init_host_sparsity_pattern : 1 ms
[OGL LOG] matrix not stored update host matrix
[OGL LOG] update_host_mtx : 0 ms
[OGL LOG] matrix is not yet sorted, sorting host matrix
[OGL LOG] sort_host_mtx_sparsity_pattern : 0 ms
[OGL LOG] sort_host_mtx : 0 ms
[OGL LOG] init_preconditioner : 0 ms
[OGL LOG] solve : 22 ms
noneompGKOBiCGStab:  Solving for p, Initial residual = 0.316826, Final residual = 7.50806e-05, No Iterations 88
linear solve p 25375
time step continuity errors : sum local = 2.62272e-07, global = 6.31837e-21, cumulative = -1.25595e-20
ExecutionTime = 0.13 s  ClockTime = 0 s

Time = 0.002

Courant Number mean: 0.00559505 max: 0.0357001
DILUPBiCGStab:  Solving for Ux, Initial residual = 0.242428, Final residual = 1.13985e-14, No Iterations 5
DILUPBiCGStab:  Solving for Uy, Initial residual = 0.296202, Final residual = 1.12434e-14, No Iterations 5
DILUPBiCGStab:  Solving for Uz, Initial residual = 0.662157, Final residual = 3.10159e-14, No Iterations 5
linear solve U 1974
[OGL LOG] init_host_sparsity_pattern : 0 ms
[OGL LOG] matrix not stored update host matrix
[OGL LOG] update_host_mtx : 0 ms
[OGL LOG] matrix is not yet sorted, sorting host matrix
[OGL LOG] sort_host_mtx_sparsity_pattern : 0 ms
[OGL LOG] sort_host_mtx : 0 ms
[OGL LOG] init_preconditioner : 0 ms
[OGL LOG] solve : 18 ms
noneompGKOBiCGStab:  Solving for p, Initial residual = 0.157069, Final residual = 7.50445e-05, No Iterations 84
linear solve p 21872
time step continuity errors : sum local = 2.60744e-07, global = -1.74701e-21, cumulative = -1.43066e-20
[OGL LOG] init_host_sparsity_pattern : 0 ms
[OGL LOG] matrix not stored update host matrix
[OGL LOG] update_host_mtx : 0 ms
[OGL LOG] matrix is not yet sorted, sorting host matrix
[OGL LOG] sort_host_mtx_sparsity_pattern : 0 ms
[OGL LOG] sort_host_mtx : 0 ms
[OGL LOG] init_preconditioner : 0 ms
[OGL LOG] solve : 16 ms
noneompGKOBiCGStab:  Solving for p, Initial residual = 0.0607273, Final residual = 9.57569e-05, No Iterations 75
linear solve p 19628
time step continuity errors : sum local = 1.8504e-07, global = 1.02124e-20, cumulative = -4.09418e-21
ExecutionTime = 0.17 s  ClockTime = 0 s

Time = 0.003

Courant Number mean: 0.00940318 max: 0.0587301
DILUPBiCGStab:  Solving for Ux, Initial residual = 0.117884, Final residual = 5.34262e-15, No Iterations 5
DILUPBiCGStab:  Solving for Uy, Initial residual = 0.148875, Final residual = 5.35066e-15, No Iterations 5
DILUPBiCGStab:  Solving for Uz, Initial residual = 0.335827, Final residual = 2.07694e-14, No Iterations 5
linear solve U 1820
[OGL LOG] init_host_sparsity_pattern : 0 ms
[OGL LOG] matrix not stored update host matrix
[OGL LOG] update_host_mtx : 0 ms
[OGL LOG] matrix is not yet sorted, sorting host matrix
[OGL LOG] sort_host_mtx_sparsity_pattern : 0 ms
[OGL LOG] sort_host_mtx : 0 ms
[OGL LOG] init_preconditioner : 0 ms
[OGL LOG] solve : 9 ms
noneompGKOBiCGStab:  Solving for p, Initial residual = 0.0763361, Final residual = 9.25296e-05, No Iterations 42
linear solve p 12460
time step continuity errors : sum local = 7.66949e-08, global = 2.57336e-20, cumulative = 2.16394e-20
[OGL LOG] init_host_sparsity_pattern : 0 ms
[OGL LOG] matrix not stored update host matrix
[OGL LOG] update_host_mtx : 0 ms
[OGL LOG] matrix is not yet sorted, sorting host matrix
[OGL LOG] sort_host_mtx_sparsity_pattern : 0 ms
[OGL LOG] sort_host_mtx : 0 ms
[OGL LOG] init_preconditioner : 0 ms
[OGL LOG] solve : 8 ms
noneompGKOBiCGStab:  Solving for p, Initial residual = 0.0342509, Final residual = 9.75776e-05, No Iterations 34
linear solve p 10823
time step continuity errors : sum local = 1.40098e-07, global = 2.03496e-20, cumulative = 4.1989e-20
ExecutionTime = 0.19 s  ClockTime = 0 s

Time = 0.004

Courant Number mean: 0.0121904 max: 0.0737271
DILUPBiCGStab:  Solving for Ux, Initial residual = 0.0723263, Final residual = 2.99004e-15, No Iterations 5
DILUPBiCGStab:  Solving for Uy, Initial residual = 0.0916632, Final residual = 3.02105e-15, No Iterations 5
DILUPBiCGStab:  Solving for Uz, Initial residual = 0.182963, Final residual = 7.20487e-15, No Iterations 5
linear solve U 1923
[OGL LOG] init_host_sparsity_pattern : 0 ms
[OGL LOG] matrix not stored update host matrix
[OGL LOG] update_host_mtx : 0 ms
[OGL LOG] matrix is not yet sorted, sorting host matrix
[OGL LOG] sort_host_mtx_sparsity_pattern : 0 ms
[OGL LOG] sort_host_mtx : 0 ms
[OGL LOG] init_preconditioner : 0 ms
[OGL LOG] solve : 9 ms
noneompGKOBiCGStab:  Solving for p, Initial residual = 0.04931, Final residual = 9.94844e-05, No Iterations 39
linear solve p 12211
time step continuity errors : sum local = 1.65892e-07, global = 2.20361e-21, cumulative = 4.41926e-20
[OGL LOG] init_host_sparsity_pattern : 0 ms
[OGL LOG] matrix not stored update host matrix
[OGL LOG] update_host_mtx : 0 ms
[OGL LOG] matrix is not yet sorted, sorting host matrix
[OGL LOG] sort_host_mtx_sparsity_pattern : 0 ms
[OGL LOG] sort_host_mtx : 0 ms
[OGL LOG] init_preconditioner : 0 ms
[OGL LOG] solve : 7 ms
noneompGKOBiCGStab:  Solving for p, Initial residual = 0.0222226, Final residual = 9.16286e-05, No Iterations 31
linear solve p 9873
time step continuity errors : sum local = 1.04885e-07, global = -1.83345e-20, cumulative = 2.58581e-20
ExecutionTime = 0.22 s  ClockTime = 0 s

Time = 0.005

Courant Number mean: 0.0143061 max: 0.0838052
DILUPBiCGStab:  Solving for Ux, Initial residual = 0.048564, Final residual = 1.79927e-15, No Iterations 5
DILUPBiCGStab:  Solving for Uy, Initial residual = 0.0627383, Final residual = 1.74781e-15, No Iterations 5
DILUPBiCGStab:  Solving for Uz, Initial residual = 0.130576, Final residual = 5.06801e-15, No Iterations 5
linear solve U 1928
[OGL LOG] init_host_sparsity_pattern : 0 ms
[OGL LOG] matrix not stored update host matrix
[OGL LOG] update_host_mtx : 0 ms
[OGL LOG] matrix is not yet sorted, sorting host matrix
[OGL LOG] sort_host_mtx_sparsity_pattern : 0 ms
[OGL LOG] sort_host_mtx : 0 ms
[OGL LOG] init_preconditioner : 0 ms
[OGL LOG] solve : 17 ms
noneompGKOBiCGStab:  Solving for p, Initial residual = 0.0360249, Final residual = 9.1449e-05, No Iterations 75
linear solve p 20412
time step continuity errors : sum local = 1.95786e-07, global = -1.72054e-22, cumulative = 2.56861e-20
[OGL LOG] init_host_sparsity_pattern : 0 ms
[OGL LOG] matrix not stored update host matrix
[OGL LOG] update_host_mtx : 0 ms
[OGL LOG] matrix is not yet sorted, sorting host matrix
[OGL LOG] sort_host_mtx_sparsity_pattern : 0 ms
[OGL LOG] sort_host_mtx : 0 ms
[OGL LOG] init_preconditioner : 0 ms
[OGL LOG] solve : 8 ms
noneompGKOBiCGStab:  Solving for p, Initial residual = 0.0153137, Final residual = 9.883e-05, No Iterations 30
linear solve p 11274
time step continuity errors : sum local = 1.48702e-07, global = -8.2867e-21, cumulative = 1.73994e-20
ExecutionTime = 0.26 s  ClockTime = 0 s

Time = 0.006

Courant Number mean: 0.0159486 max: 0.0908032
DILUPBiCGStab:  Solving for Ux, Initial residual = 0.0353452, Final residual = 1.17462e-15, No Iterations 5
DILUPBiCGStab:  Solving for Uy, Initial residual = 0.0461062, Final residual = 1.06306e-15, No Iterations 5
DILUPBiCGStab:  Solving for Uz, Initial residual = 0.0993555, Final residual = 3.99987e-15, No Iterations 5
linear solve U 2003
[OGL LOG] init_host_sparsity_pattern : 0 ms
[OGL LOG] matrix not stored update host matrix
[OGL LOG] update_host_mtx : 0 ms
[OGL LOG] matrix is not yet sorted, sorting host matrix
[OGL LOG] sort_host_mtx_sparsity_pattern : 0 ms
[OGL LOG] sort_host_mtx : 0 ms
[OGL LOG] init_preconditioner : 0 ms
[OGL LOG] solve : 15 ms
noneompGKOBiCGStab:  Solving for p, Initial residual = 0.0288636, Final residual = 8.98406e-05, No Iterations 67
linear solve p 18371
time step continuity errors : sum local = 2.23693e-07, global = -1.37147e-20, cumulative = 3.68473e-21
[OGL LOG] init_host_sparsity_pattern : 0 ms
[OGL LOG] matrix not stored update host matrix
[OGL LOG] update_host_mtx : 0 ms
[OGL LOG] matrix is not yet sorted, sorting host matrix
[OGL LOG] sort_host_mtx_sparsity_pattern : 0 ms
[OGL LOG] sort_host_mtx : 0 ms
[OGL LOG] init_preconditioner : 0 ms
[OGL LOG] solve : 7 ms
noneompGKOBiCGStab:  Solving for p, Initial residual = 0.011094, Final residual = 9.17299e-05, No Iterations 30
linear solve p 9767
time step continuity errors : sum local = 1.62492e-07, global = 2.10013e-20, cumulative = 2.4686e-20
ExecutionTime = 0.3 s  ClockTime = 0 s

Time = 0.007

Courant Number mean: 0.0172722 max: 0.0958251
DILUPBiCGStab:  Solving for Ux, Initial residual = 0.0271606, Final residual = 8.70956e-16, No Iterations 5
DILUPBiCGStab:  Solving for Uy, Initial residual = 0.0356319, Final residual = 7.40712e-16, No Iterations 5
DILUPBiCGStab:  Solving for Uz, Initial residual = 0.0793093, Final residual = 3.09844e-15, No Iterations 5
linear solve U 1854
[OGL LOG] init_host_sparsity_pattern : 0 ms
[OGL LOG] matrix not stored update host matrix
[OGL LOG] update_host_mtx : 0 ms
[OGL LOG] matrix is not yet sorted, sorting host matrix
[OGL LOG] sort_host_mtx_sparsity_pattern : 0 ms
[OGL LOG] sort_host_mtx : 0 ms
[OGL LOG] init_preconditioner : 0 ms
[OGL LOG] solve : 14 ms
noneompGKOBiCGStab:  Solving for p, Initial residual = 0.0217645, Final residual = 9.17041e-05, No Iterations 67
linear solve p 17642
time step continuity errors : sum local = 2.37746e-07, global = 3.08952e-21, cumulative = 2.77755e-20
[OGL LOG] init_host_sparsity_pattern : 0 ms
[OGL LOG] matrix not stored update host matrix
[OGL LOG] update_host_mtx : 0 ms
[OGL LOG] matrix is not yet sorted, sorting host matrix
[OGL LOG] sort_host_mtx_sparsity_pattern : 0 ms
[OGL LOG] sort_host_mtx : 0 ms
[OGL LOG] init_preconditioner : 0 ms
[OGL LOG] solve : 6 ms
noneompGKOBiCGStab:  Solving for p, Initial residual = 0.00868712, Final residual = 9.97184e-05, No Iterations 28
linear solve p 9305
time step continuity errors : sum local = 1.91012e-07, global = 1.96149e-20, cumulative = 4.73905e-20
ExecutionTime = 0.32 s  ClockTime = 0 s

Time = 0.008

Courant Number mean: 0.0183558 max: 0.0995502
DILUPBiCGStab:  Solving for Ux, Initial residual = 0.021651, Final residual = 6.39011e-16, No Iterations 5
DILUPBiCGStab:  Solving for Uy, Initial residual = 0.0286247, Final residual = 5.78705e-16, No Iterations 5
DILUPBiCGStab:  Solving for Uz, Initial residual = 0.0649323, Final residual = 2.44732e-15, No Iterations 5
linear solve U 1901
[OGL LOG] init_host_sparsity_pattern : 0 ms
[OGL LOG] matrix not stored update host matrix
[OGL LOG] update_host_mtx : 0 ms
[OGL LOG] matrix is not yet sorted, sorting host matrix
[OGL LOG] sort_host_mtx_sparsity_pattern : 0 ms
[OGL LOG] sort_host_mtx : 0 ms
[OGL LOG] init_preconditioner : 0 ms
[OGL LOG] solve : 14 ms
noneompGKOBiCGStab:  Solving for p, Initial residual = 0.01632, Final residual = 9.76772e-05, No Iterations 64
linear solve p 17611
time step continuity errors : sum local = 1.86837e-07, global = -7.56622e-21, cumulative = 3.98243e-20
[OGL LOG] init_host_sparsity_pattern : 0 ms
[OGL LOG] matrix not stored update host matrix
[OGL LOG] update_host_mtx : 0 ms
[OGL LOG] matrix is not yet sorted, sorting host matrix
[OGL LOG] sort_host_mtx_sparsity_pattern : 0 ms
[OGL LOG] sort_host_mtx : 0 ms
[OGL LOG] init_preconditioner : 0 ms
[OGL LOG] solve : 6 ms
noneompGKOBiCGStab:  Solving for p, Initial residual = 0.00665018, Final residual = 9.32145e-05, No Iterations 26
linear solve p 9519
time step continuity errors : sum local = 1.87553e-07, global = -1.82476e-20, cumulative = 2.15767e-20
ExecutionTime = 0.36 s  ClockTime = 0 s

Time = 0.009

Courant Number mean: 0.0192556 max: 0.102395
DILUPBiCGStab:  Solving for Ux, Initial residual = 0.0176731, Final residual = 4.37199e-16, No Iterations 5
DILUPBiCGStab:  Solving for Uy, Initial residual = 0.0236366, Final residual = 4.82476e-16, No Iterations 5
DILUPBiCGStab:  Solving for Uz, Initial residual = 0.0544396, Final residual = 1.9565e-15, No Iterations 5
linear solve U 1970
[OGL LOG] init_host_sparsity_pattern : 0 ms
[OGL LOG] matrix not stored update host matrix
[OGL LOG] update_host_mtx : 0 ms
[OGL LOG] matrix is not yet sorted, sorting host matrix
[OGL LOG] sort_host_mtx_sparsity_pattern : 0 ms
[OGL LOG] sort_host_mtx : 0 ms
[OGL LOG] init_preconditioner : 0 ms
[OGL LOG] solve : 8 ms
noneompGKOBiCGStab:  Solving for p, Initial residual = 0.0132836, Final residual = 9.97035e-05, No Iterations 34
linear solve p 11043
time step continuity errors : sum local = 1.94468e-07, global = 3.75375e-21, cumulative = 2.53304e-20
[OGL LOG] init_host_sparsity_pattern : 0 ms
[OGL LOG] matrix not stored update host matrix
[OGL LOG] update_host_mtx : 0 ms
[OGL LOG] matrix is not yet sorted, sorting host matrix
[OGL LOG] sort_host_mtx_sparsity_pattern : 0 ms
[OGL LOG] sort_host_mtx : 0 ms
[OGL LOG] init_preconditioner : 0 ms
[OGL LOG] solve : 6 ms
noneompGKOBiCGStab:  Solving for p, Initial residual = 0.00543148, Final residual = 9.41924e-05, No Iterations 27
linear solve p 8840
time step continuity errors : sum local = 1.89168e-07, global = 1.53409e-20, cumulative = 4.06713e-20
ExecutionTime = 0.38 s  ClockTime = 0 s

Time = 0.01

Courant Number mean: 0.0200147 max: 0.104627
DILUPBiCGStab:  Solving for Ux, Initial residual = 0.0147286, Final residual = 2.84323e-16, No Iterations 5
DILUPBiCGStab:  Solving for Uy, Initial residual = 0.0199327, Final residual = 4.01556e-16, No Iterations 5
DILUPBiCGStab:  Solving for Uz, Initial residual = 0.0463007, Final residual = 1.54277e-15, No Iterations 5
linear solve U 2044
[OGL LOG] init_host_sparsity_pattern : 0 ms
[OGL LOG] matrix not stored update host matrix
[OGL LOG] update_host_mtx : 0 ms
[OGL LOG] matrix is not yet sorted, sorting host matrix
[OGL LOG] sort_host_mtx_sparsity_pattern : 0 ms
[OGL LOG] sort_host_mtx : 0 ms
[OGL LOG] init_preconditioner : 0 ms
[OGL LOG] solve : 14 ms
noneompGKOBiCGStab:  Solving for p, Initial residual = 0.0111654, Final residual = 9.94269e-05, No Iterations 56
linear solve p 17349
time step continuity errors : sum local = 2.03367e-07, global = 3.10557e-20, cumulative = 7.1727e-20
[OGL LOG] init_host_sparsity_pattern : 0 ms
[OGL LOG] matrix not stored update host matrix
[OGL LOG] update_host_mtx : 0 ms
[OGL LOG] matrix is not yet sorted, sorting host matrix
[OGL LOG] sort_host_mtx_sparsity_pattern : 0 ms
[OGL LOG] sort_host_mtx : 0 ms
[OGL LOG] init_preconditioner : 0 ms
[OGL LOG] solve : 6 ms
noneompGKOBiCGStab:  Solving for p, Initial residual = 0.00450865, Final residual = 9.23449e-05, No Iterations 27
linear solve p 9730
time step continuity errors : sum local = 1.88084e-07, global = -1.18328e-20, cumulative = 5.98941e-20
ExecutionTime = 0.41 s  ClockTime = 0 s

End

