/*---------------------------------------------------------------------------*\
  =========                 |
  \\      /  F ield         | OpenFOAM: The Open Source CFD Toolbox
   \\    /   O peration     | Website:  https://openfoam.org
    \\  /    A nd           | Version:  8
     \\/     M anipulation  |
\*---------------------------------------------------------------------------*/
Build  : 8-ef60d22ea792
Exec   : icoFoam
Date   : Jul 29 2021
Time   : 00:37:43
Host   : "uc2n414.localdomain"
PID    : 2840794
I/O    : uncollated
Case   : /pfs/data5/home/kit/scc/nq7776/code/OBR/lidDrivenCavity3D/Variation_mesh/40/Variation_matrix_solver/CG_NoPrecond_OMP/base
nProcs : 1
sigFpe : Enabling floating point exception trapping (FOAM_SIGFPE).
fileModificationChecking : Monitoring run-time modified files using timeStampMaster (fileModificationSkew 10)
allowSystemOperations : Allowing user-supplied system call operations

// * * * * * * * * * * * * * * * * * * * * * * * * * * * * * * * * * * * * * //
Create time

Create mesh for time = 0

Reading transportProperties

Reading field p

Reading field U

Reading/calculating face flux field phi


Starting time loop

Time = 0.001

Courant Number mean: 0 max: 0
DILUPBiCGStab:  Solving for Ux, Initial residual = 1, Final residual = 1.19415e-05, No Iterations 5
DILUPBiCGStab:  Solving for Uy:  solution singularity
DILUPBiCGStab:  Solving for Uz:  solution singularity
linear solve U 28812
[OGL LOG] init_host_sparsity_pattern : 19 ms
[OGL LOG] matrix not stored update host matrix
[OGL LOG] update_host_mtx : 10 ms
[OGL LOG] matrix is not yet sorted, compute sorting idxs
[OGL LOG] compute_sort : 511 ms
[OGL LOG] matrix is not yet sorted, sorting host matrix
[OGL LOG] sort_host_mtx_sparsity_pattern : 13 ms
[OGL LOG] sort_host_mtx : 7 ms
[OGL LOG] init_preconditioner : 0 ms
[OGL LOG] solve : 532 ms
noneompGKOCG:  Solving for p, Initial residual = 1, Final residual = 8.67736e-05, No Iterations 310
linear solve p 1109335
time step continuity errors : sum local = 4.90083e-08, global = -7.14994e-23, cumulative = -7.14994e-23
[OGL LOG] init_host_sparsity_pattern : 17 ms
[OGL LOG] matrix not stored update host matrix
[OGL LOG] update_host_mtx : 9 ms
[OGL LOG] matrix is not yet sorted, sorting host matrix
[OGL LOG] sort_host_mtx_sparsity_pattern : 12 ms
[OGL LOG] sort_host_mtx : 6 ms
[OGL LOG] init_preconditioner : 0 ms
[OGL LOG] solve : 526 ms
noneompGKOCG:  Solving for p, Initial residual = 0.607442, Final residual = 9.4821e-05, No Iterations 305
linear solve p 582484
time step continuity errors : sum local = 7.91561e-08, global = -6.88046e-21, cumulative = -6.95196e-21
ExecutionTime = 2.01 s  ClockTime = 2 s

Time = 0.002

Courant Number mean: 0.0213818 max: 0.237104
DILUPBiCGStab:  Solving for Ux, Initial residual = 0.179109, Final residual = 2.2903e-06, No Iterations 5
DILUPBiCGStab:  Solving for Uy, Initial residual = 0.290839, Final residual = 3.2316e-06, No Iterations 5
DILUPBiCGStab:  Solving for Uz, Initial residual = 0.958333, Final residual = 1.25289e-05, No Iterations 5
linear solve U 47340
[OGL LOG] init_host_sparsity_pattern : 16 ms
[OGL LOG] matrix not stored update host matrix
[OGL LOG] update_host_mtx : 9 ms
[OGL LOG] matrix is not yet sorted, sorting host matrix
[OGL LOG] sort_host_mtx_sparsity_pattern : 14 ms
[OGL LOG] sort_host_mtx : 6 ms
[OGL LOG] init_preconditioner : 0 ms
[OGL LOG] solve : 521 ms
noneompGKOCG:  Solving for p, Initial residual = 0.459163, Final residual = 8.42077e-05, No Iterations 303
linear solve p 575642
time step continuity errors : sum local = 6.70254e-08, global = -4.50468e-21, cumulative = -1.14566e-20
[OGL LOG] init_host_sparsity_pattern : 17 ms
[OGL LOG] matrix not stored update host matrix
[OGL LOG] update_host_mtx : 9 ms
[OGL LOG] matrix is not yet sorted, sorting host matrix
[OGL LOG] sort_host_mtx_sparsity_pattern : 12 ms
[OGL LOG] sort_host_mtx : 6 ms
[OGL LOG] init_preconditioner : 0 ms
[OGL LOG] solve : 516 ms
noneompGKOCG:  Solving for p, Initial residual = 0.363703, Final residual = 8.59245e-05, No Iterations 301
linear solve p 570492
time step continuity errors : sum local = 7.12197e-08, global = -2.51754e-20, cumulative = -3.66321e-20
ExecutionTime = 3.24 s  ClockTime = 3 s

Time = 0.003

Courant Number mean: 0.0325209 max: 0.306671
DILUPBiCGStab:  Solving for Ux, Initial residual = 0.0649076, Final residual = 7.63598e-07, No Iterations 5
DILUPBiCGStab:  Solving for Uy, Initial residual = 0.105098, Final residual = 6.05247e-07, No Iterations 5
DILUPBiCGStab:  Solving for Uz, Initial residual = 0.144727, Final residual = 1.65154e-06, No Iterations 5
linear solve U 45800
[OGL LOG] init_host_sparsity_pattern : 16 ms
[OGL LOG] matrix not stored update host matrix
[OGL LOG] update_host_mtx : 8 ms
[OGL LOG] matrix is not yet sorted, sorting host matrix
[OGL LOG] sort_host_mtx_sparsity_pattern : 13 ms
[OGL LOG] sort_host_mtx : 6 ms
[OGL LOG] init_preconditioner : 0 ms
[OGL LOG] solve : 489 ms
noneompGKOCG:  Solving for p, Initial residual = 0.164445, Final residual = 9.76337e-05, No Iterations 283
linear solve p 541931
time step continuity errors : sum local = 6.27651e-08, global = 1.58083e-20, cumulative = -2.08238e-20
[OGL LOG] init_host_sparsity_pattern : 17 ms
[OGL LOG] matrix not stored update host matrix
[OGL LOG] update_host_mtx : 8 ms
[OGL LOG] matrix is not yet sorted, sorting host matrix
[OGL LOG] sort_host_mtx_sparsity_pattern : 12 ms
[OGL LOG] sort_host_mtx : 6 ms
[OGL LOG] init_preconditioner : 0 ms
[OGL LOG] solve : 481 ms
noneompGKOCG:  Solving for p, Initial residual = 0.129702, Final residual = 9.88359e-05, No Iterations 278
linear solve p 534318
time step continuity errors : sum local = 6.33499e-08, global = -2.57619e-20, cumulative = -4.65857e-20
ExecutionTime = 4.39 s  ClockTime = 4 s

Time = 0.004

Courant Number mean: 0.0391011 max: 0.328163
DILUPBiCGStab:  Solving for Ux, Initial residual = 0.0380612, Final residual = 2.89175e-07, No Iterations 5
DILUPBiCGStab:  Solving for Uy, Initial residual = 0.0656696, Final residual = 3.02517e-07, No Iterations 5
DILUPBiCGStab:  Solving for Uz, Initial residual = 0.105513, Final residual = 6.74353e-07, No Iterations 5
linear solve U 45742
[OGL LOG] init_host_sparsity_pattern : 16 ms
[OGL LOG] matrix not stored update host matrix
[OGL LOG] update_host_mtx : 8 ms
[OGL LOG] matrix is not yet sorted, sorting host matrix
[OGL LOG] sort_host_mtx_sparsity_pattern : 12 ms
[OGL LOG] sort_host_mtx : 6 ms
[OGL LOG] init_preconditioner : 0 ms
[OGL LOG] solve : 481 ms
noneompGKOCG:  Solving for p, Initial residual = 0.0834325, Final residual = 9.05389e-05, No Iterations 277
linear solve p 533993
time step continuity errors : sum local = 5.62051e-08, global = 8.13082e-21, cumulative = -3.84549e-20
[OGL LOG] init_host_sparsity_pattern : 17 ms
[OGL LOG] matrix not stored update host matrix
[OGL LOG] update_host_mtx : 9 ms
[OGL LOG] matrix is not yet sorted, sorting host matrix
[OGL LOG] sort_host_mtx_sparsity_pattern : 12 ms
[OGL LOG] sort_host_mtx : 6 ms
[OGL LOG] init_preconditioner : 0 ms
[OGL LOG] solve : 472 ms
noneompGKOCG:  Solving for p, Initial residual = 0.0649746, Final residual = 9.31153e-05, No Iterations 274
linear solve p 526113
time step continuity errors : sum local = 5.85645e-08, global = -3.99099e-21, cumulative = -4.24459e-20
ExecutionTime = 5.52 s  ClockTime = 6 s

Time = 0.005

Courant Number mean: 0.0438791 max: 0.338387
DILUPBiCGStab:  Solving for Ux, Initial residual = 0.0264329, Final residual = 7.82431e-08, No Iterations 5
DILUPBiCGStab:  Solving for Uy, Initial residual = 0.0455729, Final residual = 1.71087e-07, No Iterations 5
DILUPBiCGStab:  Solving for Uz, Initial residual = 0.0749891, Final residual = 2.93069e-07, No Iterations 5
linear solve U 45241
[OGL LOG] init_host_sparsity_pattern : 16 ms
[OGL LOG] matrix not stored update host matrix
[OGL LOG] update_host_mtx : 8 ms
[OGL LOG] matrix is not yet sorted, sorting host matrix
[OGL LOG] sort_host_mtx_sparsity_pattern : 12 ms
[OGL LOG] sort_host_mtx : 6 ms
[OGL LOG] init_preconditioner : 0 ms
[OGL LOG] solve : 469 ms
noneompGKOCG:  Solving for p, Initial residual = 0.0440319, Final residual = 9.14681e-05, No Iterations 272
linear solve p 522163
time step continuity errors : sum local = 5.67788e-08, global = -1.04973e-20, cumulative = -5.29432e-20
[OGL LOG] init_host_sparsity_pattern : 17 ms
[OGL LOG] matrix not stored update host matrix
[OGL LOG] update_host_mtx : 9 ms
[OGL LOG] matrix is not yet sorted, sorting host matrix
[OGL LOG] sort_host_mtx_sparsity_pattern : 12 ms
[OGL LOG] sort_host_mtx : 6 ms
[OGL LOG] init_preconditioner : 0 ms
[OGL LOG] solve : 469 ms
noneompGKOCG:  Solving for p, Initial residual = 0.035647, Final residual = 9.19377e-05, No Iterations 270
linear solve p 523699
time step continuity errors : sum local = 5.73009e-08, global = -1.84997e-21, cumulative = -5.47932e-20
ExecutionTime = 6.64 s  ClockTime = 7 s

Time = 0.006

Courant Number mean: 0.0475595 max: 0.344477
DILUPBiCGStab:  Solving for Ux, Initial residual = 0.0200118, Final residual = 3.55024e-08, No Iterations 5
DILUPBiCGStab:  Solving for Uy, Initial residual = 0.0348388, Final residual = 8.0185e-08, No Iterations 5
DILUPBiCGStab:  Solving for Uz, Initial residual = 0.0588936, Final residual = 1.91526e-07, No Iterations 5
linear solve U 45285
[OGL LOG] init_host_sparsity_pattern : 16 ms
[OGL LOG] matrix not stored update host matrix
[OGL LOG] update_host_mtx : 8 ms
[OGL LOG] matrix is not yet sorted, sorting host matrix
[OGL LOG] sort_host_mtx_sparsity_pattern : 12 ms
[OGL LOG] sort_host_mtx : 6 ms
[OGL LOG] init_preconditioner : 0 ms
[OGL LOG] solve : 466 ms
noneompGKOCG:  Solving for p, Initial residual = 0.0293405, Final residual = 8.50108e-05, No Iterations 271
linear solve p 519331
time step continuity errors : sum local = 5.29219e-08, global = 2.1124e-21, cumulative = -5.26808e-20
[OGL LOG] init_host_sparsity_pattern : 18 ms
[OGL LOG] matrix not stored update host matrix
[OGL LOG] update_host_mtx : 9 ms
[OGL LOG] matrix is not yet sorted, sorting host matrix
[OGL LOG] sort_host_mtx_sparsity_pattern : 13 ms
[OGL LOG] sort_host_mtx : 6 ms
[OGL LOG] init_preconditioner : 0 ms
[OGL LOG] solve : 233 ms
noneompGKOCG:  Solving for p, Initial residual = 0.024054, Final residual = 9.88968e-05, No Iterations 135
linear solve p 289910
time step continuity errors : sum local = 7.57798e-08, global = -1.85215e-21, cumulative = -5.45329e-20
ExecutionTime = 7.52 s  ClockTime = 8 s

Time = 0.007

Courant Number mean: 0.0505736 max: 0.348643
DILUPBiCGStab:  Solving for Ux, Initial residual = 0.0159057, Final residual = 2.12757e-08, No Iterations 5
DILUPBiCGStab:  Solving for Uy, Initial residual = 0.0279053, Final residual = 5.8881e-08, No Iterations 5
DILUPBiCGStab:  Solving for Uz, Initial residual = 0.049062, Final residual = 1.37439e-07, No Iterations 5
linear solve U 45321
[OGL LOG] init_host_sparsity_pattern : 16 ms
[OGL LOG] matrix not stored update host matrix
[OGL LOG] update_host_mtx : 8 ms
[OGL LOG] matrix is not yet sorted, sorting host matrix
[OGL LOG] sort_host_mtx_sparsity_pattern : 12 ms
[OGL LOG] sort_host_mtx : 6 ms
[OGL LOG] init_preconditioner : 0 ms
[OGL LOG] solve : 466 ms
noneompGKOCG:  Solving for p, Initial residual = 0.0230271, Final residual = 9.60098e-05, No Iterations 269
linear solve p 519036
time step continuity errors : sum local = 6.00906e-08, global = -1.73037e-20, cumulative = -7.18366e-20
[OGL LOG] init_host_sparsity_pattern : 17 ms
[OGL LOG] matrix not stored update host matrix
[OGL LOG] update_host_mtx : 9 ms
[OGL LOG] matrix is not yet sorted, sorting host matrix
[OGL LOG] sort_host_mtx_sparsity_pattern : 12 ms
[OGL LOG] sort_host_mtx : 6 ms
[OGL LOG] init_preconditioner : 0 ms
[OGL LOG] solve : 209 ms
noneompGKOCG:  Solving for p, Initial residual = 0.0192887, Final residual = 9.83162e-05, No Iterations 121
linear solve p 263880
time step continuity errors : sum local = 6.45494e-08, global = 5.87831e-21, cumulative = -6.59583e-20
ExecutionTime = 8.39 s  ClockTime = 8 s

Time = 0.008

Courant Number mean: 0.053113 max: 0.351704
DILUPBiCGStab:  Solving for Ux, Initial residual = 0.0130778, Final residual = 1.51455e-08, No Iterations 5
DILUPBiCGStab:  Solving for Uy, Initial residual = 0.0230448, Final residual = 3.81376e-08, No Iterations 5
DILUPBiCGStab:  Solving for Uz, Initial residual = 0.0416161, Final residual = 1.08202e-07, No Iterations 5
linear solve U 45445
[OGL LOG] init_host_sparsity_pattern : 16 ms
[OGL LOG] matrix not stored update host matrix
[OGL LOG] update_host_mtx : 8 ms
[OGL LOG] matrix is not yet sorted, sorting host matrix
[OGL LOG] sort_host_mtx_sparsity_pattern : 12 ms
[OGL LOG] sort_host_mtx : 6 ms
[OGL LOG] init_preconditioner : 0 ms
[OGL LOG] solve : 457 ms
noneompGKOCG:  Solving for p, Initial residual = 0.0180588, Final residual = 9.56264e-05, No Iterations 266
linear solve p 510248
time step continuity errors : sum local = 6.00906e-08, global = -1.06932e-20, cumulative = -7.66515e-20
[OGL LOG] init_host_sparsity_pattern : 17 ms
[OGL LOG] matrix not stored update host matrix
[OGL LOG] update_host_mtx : 9 ms
[OGL LOG] matrix is not yet sorted, sorting host matrix
[OGL LOG] sort_host_mtx_sparsity_pattern : 12 ms
[OGL LOG] sort_host_mtx : 6 ms
[OGL LOG] init_preconditioner : 0 ms
[OGL LOG] solve : 212 ms
noneompGKOCG:  Solving for p, Initial residual = 0.0152578, Final residual = 9.6136e-05, No Iterations 123
linear solve p 266567
time step continuity errors : sum local = 7.48553e-08, global = 3.27107e-20, cumulative = -4.39408e-20
ExecutionTime = 9.23 s  ClockTime = 9 s

Time = 0.009

Courant Number mean: 0.0552703 max: 0.354072
DILUPBiCGStab:  Solving for Ux, Initial residual = 0.0109727, Final residual = 1.15006e-08, No Iterations 5
DILUPBiCGStab:  Solving for Uy, Initial residual = 0.0195151, Final residual = 2.78374e-08, No Iterations 5
DILUPBiCGStab:  Solving for Uz, Initial residual = 0.0360327, Final residual = 8.55029e-08, No Iterations 5
linear solve U 45262
[OGL LOG] init_host_sparsity_pattern : 16 ms
[OGL LOG] matrix not stored update host matrix
[OGL LOG] update_host_mtx : 8 ms
[OGL LOG] matrix is not yet sorted, sorting host matrix
[OGL LOG] sort_host_mtx_sparsity_pattern : 12 ms
[OGL LOG] sort_host_mtx : 6 ms
[OGL LOG] init_preconditioner : 0 ms
[OGL LOG] solve : 457 ms
noneompGKOCG:  Solving for p, Initial residual = 0.0153142, Final residual = 9.72192e-05, No Iterations 266
linear solve p 510281
time step continuity errors : sum local = 6.12877e-08, global = -8.98546e-21, cumulative = -5.29262e-20
[OGL LOG] init_host_sparsity_pattern : 17 ms
[OGL LOG] matrix not stored update host matrix
[OGL LOG] update_host_mtx : 9 ms
[OGL LOG] matrix is not yet sorted, sorting host matrix
[OGL LOG] sort_host_mtx_sparsity_pattern : 12 ms
[OGL LOG] sort_host_mtx : 6 ms
[OGL LOG] init_preconditioner : 0 ms
[OGL LOG] solve : 204 ms
noneompGKOCG:  Solving for p, Initial residual = 0.0129986, Final residual = 9.74378e-05, No Iterations 117
linear solve p 258257
time step continuity errors : sum local = 6.95186e-08, global = 5.06266e-21, cumulative = -4.78636e-20
ExecutionTime = 10.07 s  ClockTime = 10 s

Time = 0.01

Courant Number mean: 0.0571261 max: 0.355961
DILUPBiCGStab:  Solving for Ux, Initial residual = 0.00938736, Final residual = 9.26482e-09, No Iterations 5
DILUPBiCGStab:  Solving for Uy, Initial residual = 0.0167434, Final residual = 2.04685e-08, No Iterations 5
DILUPBiCGStab:  Solving for Uz, Initial residual = 0.0317419, Final residual = 6.7458e-08, No Iterations 5
linear solve U 45254
[OGL LOG] init_host_sparsity_pattern : 16 ms
[OGL LOG] matrix not stored update host matrix
[OGL LOG] update_host_mtx : 8 ms
[OGL LOG] matrix is not yet sorted, sorting host matrix
[OGL LOG] sort_host_mtx_sparsity_pattern : 12 ms
[OGL LOG] sort_host_mtx : 6 ms
[OGL LOG] init_preconditioner : 0 ms
[OGL LOG] solve : 455 ms
noneompGKOCG:  Solving for p, Initial residual = 0.0129349, Final residual = 9.30581e-05, No Iterations 265
linear solve p 508393
time step continuity errors : sum local = 5.88264e-08, global = 5.1461e-21, cumulative = -4.27175e-20
[OGL LOG] init_host_sparsity_pattern : 17 ms
[OGL LOG] matrix not stored update host matrix
[OGL LOG] update_host_mtx : 9 ms
[OGL LOG] matrix is not yet sorted, sorting host matrix
[OGL LOG] sort_host_mtx_sparsity_pattern : 12 ms
[OGL LOG] sort_host_mtx : 6 ms
[OGL LOG] init_preconditioner : 0 ms
[OGL LOG] solve : 453 ms
noneompGKOCG:  Solving for p, Initial residual = 0.0110082, Final residual = 9.32227e-05, No Iterations 263
linear solve p 507147
time step continuity errors : sum local = 5.90195e-08, global = 1.24242e-20, cumulative = -3.02933e-20
ExecutionTime = 11.16 s  ClockTime = 11 s

End

