/*---------------------------------------------------------------------------*\
  =========                 |
  \\      /  F ield         | OpenFOAM: The Open Source CFD Toolbox
   \\    /   O peration     | Website:  https://openfoam.org
    \\  /    A nd           | Version:  8
     \\/     M anipulation  |
\*---------------------------------------------------------------------------*/
Build  : 8-40a5a48f630f
Exec   : icoFoam
Date   : Jul 28 2021
Time   : 13:24:57
Host   : "uc2n449.localdomain"
PID    : 1430729
I/O    : uncollated
Case   : /pfs/data5/home/kit/scc/nq7776/code/OBR/lidDrivenCavity3D/Variation_mesh/100/Variation_matrix_solver/CG_DIC_Serial/base
nProcs : 1
sigFpe : Enabling floating point exception trapping (FOAM_SIGFPE).
fileModificationChecking : Monitoring run-time modified files using timeStampMaster (fileModificationSkew 10)
allowSystemOperations : Allowing user-supplied system call operations

// * * * * * * * * * * * * * * * * * * * * * * * * * * * * * * * * * * * * * //
Create time

Create mesh for time = 0

Reading transportProperties

Reading field p

Reading field U

Reading/calculating face flux field phi


Starting time loop

Time = 0.001

Courant Number mean: 0 max: 0
nonePBiCGStab:  Solving for Ux, Initial residual = 1, Final residual = 0.0818707, No Iterations 5
nonePBiCGStab:  Solving for Uy, Initial residual = 0, Final residual = 0, No Iterations 0
nonePBiCGStab:  Solving for Uz, Initial residual = 0, Final residual = 0, No Iterations 0
linear solve U 261
DICPCG:  Solving for p, Initial residual = 1, Final residual = 9.75645e-05, No Iterations 243
linear solve p 5992
time step continuity errors : sum local = 3.69549e-08, global = -2.43895e-20, cumulative = -2.43895e-20
DICPCG:  Solving for p, Initial residual = 0.707454, Final residual = 9.30722e-05, No Iterations 239
linear solve p 5893
time step continuity errors : sum local = 4.88273e-08, global = 3.59455e-22, cumulative = -2.403e-20
ExecutionTime = 16.06 s  ClockTime = 17 s

Time = 0.002

Courant Number mean: 0.0422155 max: 0.791725
nonePBiCGStab:  Solving for Ux, Initial residual = 0.137867, Final residual = 0.0400074, No Iterations 5
nonePBiCGStab:  Solving for Uy, Initial residual = 0.451746, Final residual = 0.130141, No Iterations 5
nonePBiCGStab:  Solving for Uz, Initial residual = 0.987502, Final residual = 0.32347, No Iterations 5
linear solve U 577
DICPCG:  Solving for p, Initial residual = 0.789692, Final residual = 9.94079e-05, No Iterations 138
linear solve p 3413
time step continuity errors : sum local = 1.00913e-07, global = -3.38515e-22, cumulative = -2.43685e-20
DICPCG:  Solving for p, Initial residual = 0.713521, Final residual = 9.47966e-05, No Iterations 136
linear solve p 3373
time step continuity errors : sum local = 9.33424e-08, global = 3.81135e-21, cumulative = -2.05572e-20
ExecutionTime = 24 s  ClockTime = 25 s

Time = 0.003

Courant Number mean: 0.0674677 max: 0.899979
nonePBiCGStab:  Solving for Ux, Initial residual = 0.0610503, Final residual = 0.0152945, No Iterations 5
nonePBiCGStab:  Solving for Uy, Initial residual = 0.208801, Final residual = 0.0594417, No Iterations 5
nonePBiCGStab:  Solving for Uz, Initial residual = 0.710622, Final residual = 0.21293, No Iterations 5
linear solve U 582
DICPCG:  Solving for p, Initial residual = 0.797084, Final residual = 8.39375e-05, No Iterations 247
linear solve p 6074
time step continuity errors : sum local = 6.08291e-08, global = -1.16853e-21, cumulative = -2.17257e-20
DICPCG:  Solving for p, Initial residual = 0.724958, Final residual = 9.23165e-05, No Iterations 246
linear solve p 6078
time step continuity errors : sum local = 6.5247e-08, global = -3.32636e-22, cumulative = -2.20584e-20
ExecutionTime = 37.31 s  ClockTime = 38 s

Time = 0.004

Courant Number mean: 0.0814736 max: 0.912905
nonePBiCGStab:  Solving for Ux, Initial residual = 0.0387825, Final residual = 0.010725, No Iterations 5
nonePBiCGStab:  Solving for Uy, Initial residual = 0.14897, Final residual = 0.0502014, No Iterations 5
nonePBiCGStab:  Solving for Uz, Initial residual = 0.492475, Final residual = 0.134582, No Iterations 5
linear solve U 582
DICPCG:  Solving for p, Initial residual = 0.71954, Final residual = 8.8206e-05, No Iterations 118
linear solve p 2930
time step continuity errors : sum local = 6.90436e-08, global = 1.21956e-20, cumulative = -9.86274e-21
DICPCG:  Solving for p, Initial residual = 0.619922, Final residual = 9.40146e-05, No Iterations 117
linear solve p 2899
time step continuity errors : sum local = 7.28599e-08, global = 4.35407e-22, cumulative = -9.42734e-21
ExecutionTime = 44.29 s  ClockTime = 45 s

Time = 0.005

Courant Number mean: 0.0922788 max: 0.925559
nonePBiCGStab:  Solving for Ux, Initial residual = 0.0298075, Final residual = 0.00895818, No Iterations 5
nonePBiCGStab:  Solving for Uy, Initial residual = 0.0986709, Final residual = 0.0358256, No Iterations 5
nonePBiCGStab:  Solving for Uz, Initial residual = 0.305488, Final residual = 0.0790536, No Iterations 5
linear solve U 582
DICPCG:  Solving for p, Initial residual = 0.757119, Final residual = 9.29892e-05, No Iterations 114
linear solve p 2837
time step continuity errors : sum local = 6.9267e-08, global = -5.20354e-21, cumulative = -1.46309e-20
DICPCG:  Solving for p, Initial residual = 0.670869, Final residual = 8.95716e-05, No Iterations 113
linear solve p 2795
time step continuity errors : sum local = 6.23224e-08, global = 5.53113e-21, cumulative = -9.09974e-21
ExecutionTime = 51.07 s  ClockTime = 52 s

Time = 0.006

Courant Number mean: 0.100678 max: 0.932437
nonePBiCGStab:  Solving for Ux, Initial residual = 0.023463, Final residual = 0.00717201, No Iterations 5
nonePBiCGStab:  Solving for Uy, Initial residual = 0.0793527, Final residual = 0.0291842, No Iterations 5
nonePBiCGStab:  Solving for Uz, Initial residual = 0.238509, Final residual = 0.0713616, No Iterations 5
linear solve U 584
DICPCG:  Solving for p, Initial residual = 0.69032, Final residual = 9.93413e-05, No Iterations 110
linear solve p 2794
time step continuity errors : sum local = 7.26582e-08, global = 4.67704e-21, cumulative = -4.4227e-21
DICPCG:  Solving for p, Initial residual = 0.593033, Final residual = 9.57158e-05, No Iterations 109
linear solve p 2862
time step continuity errors : sum local = 6.96395e-08, global = -6.65125e-21, cumulative = -1.1074e-20
ExecutionTime = 58 s  ClockTime = 59 s

Time = 0.007

Courant Number mean: 0.107719 max: 0.937853
nonePBiCGStab:  Solving for Ux, Initial residual = 0.0202158, Final residual = 0.00597601, No Iterations 5
nonePBiCGStab:  Solving for Uy, Initial residual = 0.0623404, Final residual = 0.0233474, No Iterations 5
nonePBiCGStab:  Solving for Uz, Initial residual = 0.184096, Final residual = 0.0535213, No Iterations 5
linear solve U 593
DICPCG:  Solving for p, Initial residual = 0.730715, Final residual = 9.83181e-05, No Iterations 113
linear solve p 2708
time step continuity errors : sum local = 7.59298e-08, global = -8.64112e-21, cumulative = -1.97151e-20
DICPCG:  Solving for p, Initial residual = 0.634821, Final residual = 9.27863e-05, No Iterations 108
linear solve p 2571
time step continuity errors : sum local = 6.50261e-08, global = 6.07927e-21, cumulative = -1.36358e-20
ExecutionTime = 64.58 s  ClockTime = 65 s

Time = 0.008

Courant Number mean: 0.113806 max: 0.941735
nonePBiCGStab:  Solving for Ux, Initial residual = 0.0171004, Final residual = 0.00531894, No Iterations 5
nonePBiCGStab:  Solving for Uy, Initial residual = 0.0538272, Final residual = 0.0185752, No Iterations 5
nonePBiCGStab:  Solving for Uz, Initial residual = 0.158301, Final residual = 0.0507711, No Iterations 5
linear solve U 574
DICPCG:  Solving for p, Initial residual = 0.673504, Final residual = 9.69581e-05, No Iterations 116
linear solve p 2767
time step continuity errors : sum local = 8.14707e-08, global = -4.3221e-21, cumulative = -1.79579e-20
DICPCG:  Solving for p, Initial residual = 0.575445, Final residual = 9.84893e-05, No Iterations 112
linear solve p 2703
time step continuity errors : sum local = 7.32382e-08, global = 4.78923e-21, cumulative = -1.31687e-20
ExecutionTime = 71.2 s  ClockTime = 72 s

Time = 0.009

Courant Number mean: 0.11917 max: 0.944994
nonePBiCGStab:  Solving for Ux, Initial residual = 0.0156286, Final residual = 0.00446147, No Iterations 5
nonePBiCGStab:  Solving for Uy, Initial residual = 0.0457721, Final residual = 0.0166829, No Iterations 5
nonePBiCGStab:  Solving for Uz, Initial residual = 0.134367, Final residual = 0.0421036, No Iterations 5
linear solve U 568
DICPCG:  Solving for p, Initial residual = 0.716425, Final residual = 9.9193e-05, No Iterations 232
linear solve p 5528
time step continuity errors : sum local = 6.76024e-08, global = -9.80449e-21, cumulative = -2.29732e-20
DICPCG:  Solving for p, Initial residual = 0.61592, Final residual = 9.05833e-05, No Iterations 232
linear solve p 5493
time step continuity errors : sum local = 6.17053e-08, global = 1.38577e-21, cumulative = -2.15874e-20
ExecutionTime = 83.33 s  ClockTime = 84 s

Time = 0.01

Courant Number mean: 0.124009 max: 0.947502
nonePBiCGStab:  Solving for Ux, Initial residual = 0.013822, Final residual = 0.00362752, No Iterations 5
nonePBiCGStab:  Solving for Uy, Initial residual = 0.0413524, Final residual = 0.0133325, No Iterations 5
nonePBiCGStab:  Solving for Uz, Initial residual = 0.120993, Final residual = 0.0393979, No Iterations 5
linear solve U 522
DICPCG:  Solving for p, Initial residual = 0.669628, Final residual = 9.3321e-05, No Iterations 230
linear solve p 5477
time step continuity errors : sum local = 6.73559e-08, global = -3.75855e-21, cumulative = -2.5346e-20
DICPCG:  Solving for p, Initial residual = 0.572046, Final residual = 9.88536e-05, No Iterations 110
linear solve p 2628
time step continuity errors : sum local = 8.43965e-08, global = -2.15607e-21, cumulative = -2.7502e-20
ExecutionTime = 92.5 s  ClockTime = 93 s

End

