/*---------------------------------------------------------------------------*\
  =========                 |
  \\      /  F ield         | OpenFOAM: The Open Source CFD Toolbox
   \\    /   O peration     | Website:  https://openfoam.org
    \\  /    A nd           | Version:  8
     \\/     M anipulation  |
\*---------------------------------------------------------------------------*/
Build  : 8-ef60d22ea792
Exec   : icoFoam
Date   : Jul 29 2021
Time   : 02:52:25
Host   : "uc2n489.localdomain"
PID    : 3412968
I/O    : uncollated
Case   : /pfs/data5/home/kit/scc/nq7776/code/OBR/lidDrivenCavity3D/Variation_mesh/65/Variation_matrix_solver/CG_BJ_CUDA/base
nProcs : 1
sigFpe : Enabling floating point exception trapping (FOAM_SIGFPE).
fileModificationChecking : Monitoring run-time modified files using timeStampMaster (fileModificationSkew 10)
allowSystemOperations : Allowing user-supplied system call operations

// * * * * * * * * * * * * * * * * * * * * * * * * * * * * * * * * * * * * * //
Create time

Create mesh for time = 0

Reading transportProperties

Reading field p

Reading field U

Reading/calculating face flux field phi


Starting time loop

Time = 0.001

Courant Number mean: 0 max: 0
DILUPBiCGStab:  Solving for Ux, Initial residual = 1, Final residual = 0.0009093, No Iterations 5
DILUPBiCGStab:  Solving for Uy:  solution singularity
DILUPBiCGStab:  Solving for Uz:  solution singularity
linear solve U 133058
[OGL LOG] init_host_sparsity_pattern : 77 ms
[OGL LOG] matrix not stored update host matrix
[OGL LOG] update_host_mtx : 40 ms
[OGL LOG] matrix is not yet sorted, compute sorting idxs
[OGL LOG] compute_sort : 2393 ms
[OGL LOG] matrix is not yet sorted, sorting host matrix
[OGL LOG] sort_host_mtx_sparsity_pattern : 54 ms
[OGL LOG] sort_host_mtx : 27 ms
[OGL LOG] init_preconditioner : 30 ms
 CG create  precond 
[OGL LOG] solve : 245 ms
BJcudaGKOCG:  Solving for p, Initial residual = 1, Final residual = 9.90523e-05, No Iterations 438
linear solve p 3629745
time step continuity errors : sum local = 5.81945e-08, global = 6.89861e-21, cumulative = 6.89861e-21
[OGL LOG] init_host_sparsity_pattern : 73 ms
[OGL LOG] matrix not stored update host matrix
[OGL LOG] update_host_mtx : 40 ms
[OGL LOG] matrix is not yet sorted, sorting host matrix
[OGL LOG] sort_host_mtx_sparsity_pattern : 56 ms
[OGL LOG] sort_host_mtx : 27 ms
[OGL LOG] init_preconditioner : 0 ms
 CG create  precond 
[OGL LOG] solve : 230 ms
BJcudaGKOCG:  Solving for p, Initial residual = 0.710528, Final residual = 9.73539e-05, No Iterations 420
linear solve p 450392
time step continuity errors : sum local = 7.70109e-08, global = -5.65124e-21, cumulative = 1.24737e-21
ExecutionTime = 5.37 s  ClockTime = 5 s

Time = 0.002

Courant Number mean: 0.036459 max: 0.470838
DILUPBiCGStab:  Solving for Ux, Initial residual = 0.154387, Final residual = 0.000271566, No Iterations 5
DILUPBiCGStab:  Solving for Uy, Initial residual = 0.350437, Final residual = 0.000506094, No Iterations 5
DILUPBiCGStab:  Solving for Uz, Initial residual = 0.98272, Final residual = 0.00176905, No Iterations 5
linear solve U 254610
[OGL LOG] init_host_sparsity_pattern : 73 ms
[OGL LOG] matrix not stored update host matrix
[OGL LOG] update_host_mtx : 37 ms
[OGL LOG] matrix is not yet sorted, sorting host matrix
[OGL LOG] sort_host_mtx_sparsity_pattern : 53 ms
[OGL LOG] sort_host_mtx : 27 ms
[OGL LOG] init_preconditioner : 0 ms
 CG create  precond 
[OGL LOG] solve : 226 ms
BJcudaGKOCG:  Solving for p, Initial residual = 0.645935, Final residual = 9.4954e-05, No Iterations 411
linear solve p 436267
time step continuity errors : sum local = 7.95595e-08, global = 5.57557e-21, cumulative = 6.82295e-21
[OGL LOG] init_host_sparsity_pattern : 72 ms
[OGL LOG] matrix not stored update host matrix
[OGL LOG] update_host_mtx : 35 ms
[OGL LOG] matrix is not yet sorted, sorting host matrix
[OGL LOG] sort_host_mtx_sparsity_pattern : 50 ms
[OGL LOG] sort_host_mtx : 27 ms
[OGL LOG] init_preconditioner : 0 ms
 CG create  precond 
[OGL LOG] solve : 225 ms
BJcudaGKOCG:  Solving for p, Initial residual = 0.569373, Final residual = 9.33605e-05, No Iterations 409
linear solve p 428486
time step continuity errors : sum local = 8.01406e-08, global = 9.60526e-21, cumulative = 1.64282e-20
ExecutionTime = 6.66 s  ClockTime = 7 s

Time = 0.003

Courant Number mean: 0.0547095 max: 0.564541
DILUPBiCGStab:  Solving for Ux, Initial residual = 0.0506125, Final residual = 5.48106e-05, No Iterations 5
DILUPBiCGStab:  Solving for Uy, Initial residual = 0.109593, Final residual = 0.000120717, No Iterations 5
DILUPBiCGStab:  Solving for Uz, Initial residual = 0.389233, Final residual = 0.000655978, No Iterations 5
linear solve U 251262
[OGL LOG] init_host_sparsity_pattern : 72 ms
[OGL LOG] matrix not stored update host matrix
[OGL LOG] update_host_mtx : 35 ms
[OGL LOG] matrix is not yet sorted, sorting host matrix
[OGL LOG] sort_host_mtx_sparsity_pattern : 50 ms
[OGL LOG] sort_host_mtx : 27 ms
[OGL LOG] init_preconditioner : 0 ms
 CG create  precond 
[OGL LOG] solve : 222 ms
BJcudaGKOCG:  Solving for p, Initial residual = 0.547672, Final residual = 9.84098e-05, No Iterations 405
linear solve p 425366
time step continuity errors : sum local = 5.76274e-08, global = -1.72309e-20, cumulative = -8.02742e-22
[OGL LOG] init_host_sparsity_pattern : 72 ms
[OGL LOG] matrix not stored update host matrix
[OGL LOG] update_host_mtx : 35 ms
[OGL LOG] matrix is not yet sorted, sorting host matrix
[OGL LOG] sort_host_mtx_sparsity_pattern : 51 ms
[OGL LOG] sort_host_mtx : 27 ms
[OGL LOG] init_preconditioner : 0 ms
 CG create  precond 
[OGL LOG] solve : 222 ms
BJcudaGKOCG:  Solving for p, Initial residual = 0.491419, Final residual = 9.63464e-05, No Iterations 403
linear solve p 426422
time step continuity errors : sum local = 5.48136e-08, global = 1.42681e-20, cumulative = 1.34654e-20
ExecutionTime = 7.92 s  ClockTime = 8 s

Time = 0.004

Courant Number mean: 0.0645906 max: 0.579607
DILUPBiCGStab:  Solving for Ux, Initial residual = 0.0290687, Final residual = 3.32227e-05, No Iterations 5
DILUPBiCGStab:  Solving for Uy, Initial residual = 0.0718626, Final residual = 5.5503e-05, No Iterations 5
DILUPBiCGStab:  Solving for Uz, Initial residual = 0.208845, Final residual = 0.000261761, No Iterations 5
linear solve U 259042
[OGL LOG] init_host_sparsity_pattern : 72 ms
[OGL LOG] matrix not stored update host matrix
[OGL LOG] update_host_mtx : 35 ms
[OGL LOG] matrix is not yet sorted, sorting host matrix
[OGL LOG] sort_host_mtx_sparsity_pattern : 52 ms
[OGL LOG] sort_host_mtx : 27 ms
[OGL LOG] init_preconditioner : 0 ms
 CG create  precond 
[OGL LOG] solve : 219 ms
BJcudaGKOCG:  Solving for p, Initial residual = 0.316477, Final residual = 9.47144e-05, No Iterations 397
linear solve p 424547
time step continuity errors : sum local = 4.92561e-08, global = -4.36602e-21, cumulative = 9.09936e-21
[OGL LOG] init_host_sparsity_pattern : 72 ms
[OGL LOG] matrix not stored update host matrix
[OGL LOG] update_host_mtx : 35 ms
[OGL LOG] matrix is not yet sorted, sorting host matrix
[OGL LOG] sort_host_mtx_sparsity_pattern : 51 ms
[OGL LOG] sort_host_mtx : 27 ms
[OGL LOG] init_preconditioner : 0 ms
 CG create  precond 
[OGL LOG] solve : 218 ms
BJcudaGKOCG:  Solving for p, Initial residual = 0.261702, Final residual = 9.0897e-05, No Iterations 396
linear solve p 421544
time step continuity errors : sum local = 4.78451e-08, global = 8.14228e-21, cumulative = 1.72416e-20
ExecutionTime = 9.18 s  ClockTime = 9 s

Time = 0.005

Courant Number mean: 0.0722268 max: 0.589263
DILUPBiCGStab:  Solving for Ux, Initial residual = 0.0206402, Final residual = 1.46592e-05, No Iterations 5
DILUPBiCGStab:  Solving for Uy, Initial residual = 0.0445526, Final residual = 3.5085e-05, No Iterations 5
DILUPBiCGStab:  Solving for Uz, Initial residual = 0.0747477, Final residual = 7.55357e-05, No Iterations 5
linear solve U 250293
[OGL LOG] init_host_sparsity_pattern : 72 ms
[OGL LOG] matrix not stored update host matrix
[OGL LOG] update_host_mtx : 35 ms
[OGL LOG] matrix is not yet sorted, sorting host matrix
[OGL LOG] sort_host_mtx_sparsity_pattern : 50 ms
[OGL LOG] sort_host_mtx : 27 ms
[OGL LOG] init_preconditioner : 0 ms
 CG create  precond 
[OGL LOG] solve : 207 ms
BJcudaGKOCG:  Solving for p, Initial residual = 0.213975, Final residual = 9.77219e-05, No Iterations 375
linear solve p 410489
time step continuity errors : sum local = 4.45124e-08, global = 4.35596e-21, cumulative = 2.15976e-20
[OGL LOG] init_host_sparsity_pattern : 72 ms
[OGL LOG] matrix not stored update host matrix
[OGL LOG] update_host_mtx : 35 ms
[OGL LOG] matrix is not yet sorted, sorting host matrix
[OGL LOG] sort_host_mtx_sparsity_pattern : 50 ms
[OGL LOG] sort_host_mtx : 28 ms
[OGL LOG] init_preconditioner : 0 ms
 CG create  precond 
[OGL LOG] solve : 208 ms
BJcudaGKOCG:  Solving for p, Initial residual = 0.179743, Final residual = 9.94793e-05, No Iterations 374
linear solve p 412053
time step continuity errors : sum local = 4.50502e-08, global = -2.18389e-21, cumulative = 1.94137e-20
ExecutionTime = 10.42 s  ClockTime = 10 s

Time = 0.006

Courant Number mean: 0.0781056 max: 0.595023
DILUPBiCGStab:  Solving for Ux, Initial residual = 0.0153442, Final residual = 1.31802e-05, No Iterations 5
DILUPBiCGStab:  Solving for Uy, Initial residual = 0.0341671, Final residual = 1.47444e-05, No Iterations 5
DILUPBiCGStab:  Solving for Uz, Initial residual = 0.0672546, Final residual = 6.50872e-05, No Iterations 5
linear solve U 250745
[OGL LOG] init_host_sparsity_pattern : 72 ms
[OGL LOG] matrix not stored update host matrix
[OGL LOG] update_host_mtx : 35 ms
[OGL LOG] matrix is not yet sorted, sorting host matrix
[OGL LOG] sort_host_mtx_sparsity_pattern : 51 ms
[OGL LOG] sort_host_mtx : 28 ms
[OGL LOG] init_preconditioner : 0 ms
 CG create  precond 
[OGL LOG] solve : 130 ms
BJcudaGKOCG:  Solving for p, Initial residual = 0.126696, Final residual = 9.48952e-05, No Iterations 182
linear solve p 336611
time step continuity errors : sum local = 5.07521e-08, global = -2.071e-21, cumulative = 1.73427e-20
[OGL LOG] init_host_sparsity_pattern : 72 ms
[OGL LOG] matrix not stored update host matrix
[OGL LOG] update_host_mtx : 35 ms
[OGL LOG] matrix is not yet sorted, sorting host matrix
[OGL LOG] sort_host_mtx_sparsity_pattern : 51 ms
[OGL LOG] sort_host_mtx : 28 ms
[OGL LOG] init_preconditioner : 0 ms
 CG create  precond 
[OGL LOG] solve : 127 ms
BJcudaGKOCG:  Solving for p, Initial residual = 0.103786, Final residual = 9.85256e-05, No Iterations 178
linear solve p 334162
time step continuity errors : sum local = 4.66578e-08, global = -1.05016e-20, cumulative = 6.84116e-21
ExecutionTime = 11.5 s  ClockTime = 11 s

Time = 0.007

Courant Number mean: 0.0829417 max: 0.598974
DILUPBiCGStab:  Solving for Ux, Initial residual = 0.0121947, Final residual = 5.65257e-06, No Iterations 5
DILUPBiCGStab:  Solving for Uy, Initial residual = 0.0270199, Final residual = 1.49273e-05, No Iterations 5
DILUPBiCGStab:  Solving for Uz, Initial residual = 0.0486958, Final residual = 4.10289e-05, No Iterations 5
linear solve U 273962
[OGL LOG] init_host_sparsity_pattern : 72 ms
[OGL LOG] matrix not stored update host matrix
[OGL LOG] update_host_mtx : 35 ms
[OGL LOG] matrix is not yet sorted, sorting host matrix
[OGL LOG] sort_host_mtx_sparsity_pattern : 51 ms
[OGL LOG] sort_host_mtx : 28 ms
[OGL LOG] init_preconditioner : 0 ms
 CG create  precond 
[OGL LOG] solve : 124 ms
BJcudaGKOCG:  Solving for p, Initial residual = 0.0845847, Final residual = 9.6863e-05, No Iterations 174
linear solve p 331243
time step continuity errors : sum local = 4.27164e-08, global = -1.68882e-20, cumulative = -1.00471e-20
[OGL LOG] init_host_sparsity_pattern : 77 ms
[OGL LOG] matrix not stored update host matrix
[OGL LOG] update_host_mtx : 39 ms
[OGL LOG] matrix is not yet sorted, sorting host matrix
[OGL LOG] sort_host_mtx_sparsity_pattern : 53 ms
[OGL LOG] sort_host_mtx : 27 ms
[OGL LOG] init_preconditioner : 0 ms
 CG create  precond 
[OGL LOG] solve : 96 ms
BJcudaGKOCG:  Solving for p, Initial residual = 0.0700345, Final residual = 9.82609e-05, No Iterations 172
linear solve p 312553
time step continuity errors : sum local = 4.31891e-08, global = 1.19285e-22, cumulative = -9.92779e-21
ExecutionTime = 12.61 s  ClockTime = 12 s

Time = 0.008

Courant Number mean: 0.0869903 max: 0.601971
DILUPBiCGStab:  Solving for Ux, Initial residual = 0.0100249, Final residual = 4.75325e-06, No Iterations 5
DILUPBiCGStab:  Solving for Uy, Initial residual = 0.0221931, Final residual = 6.29357e-06, No Iterations 5
DILUPBiCGStab:  Solving for Uz, Initial residual = 0.0417826, Final residual = 2.72318e-05, No Iterations 5
linear solve U 250909
[OGL LOG] init_host_sparsity_pattern : 72 ms
[OGL LOG] matrix not stored update host matrix
[OGL LOG] update_host_mtx : 35 ms
[OGL LOG] matrix is not yet sorted, sorting host matrix
[OGL LOG] sort_host_mtx_sparsity_pattern : 54 ms
[OGL LOG] sort_host_mtx : 28 ms
[OGL LOG] init_preconditioner : 0 ms
 CG create  precond 
[OGL LOG] solve : 99 ms
BJcudaGKOCG:  Solving for p, Initial residual = 0.0542783, Final residual = 9.90029e-05, No Iterations 176
linear solve p 309174
time step continuity errors : sum local = 5.06466e-08, global = -3.43566e-22, cumulative = -1.02714e-20
[OGL LOG] init_host_sparsity_pattern : 72 ms
[OGL LOG] matrix not stored update host matrix
[OGL LOG] update_host_mtx : 35 ms
[OGL LOG] matrix is not yet sorted, sorting host matrix
[OGL LOG] sort_host_mtx_sparsity_pattern : 51 ms
[OGL LOG] sort_host_mtx : 28 ms
[OGL LOG] init_preconditioner : 0 ms
 CG create  precond 
[OGL LOG] solve : 95 ms
BJcudaGKOCG:  Solving for p, Initial residual = 0.0450891, Final residual = 9.6942e-05, No Iterations 169
linear solve p 299132
time step continuity errors : sum local = 4.47223e-08, global = -7.03619e-21, cumulative = -1.73075e-20
ExecutionTime = 13.64 s  ClockTime = 14 s

Time = 0.009

Courant Number mean: 0.0904654 max: 0.604263
DILUPBiCGStab:  Solving for Ux, Initial residual = 0.00840355, Final residual = 2.59144e-06, No Iterations 5
DILUPBiCGStab:  Solving for Uy, Initial residual = 0.0188049, Final residual = 6.3988e-06, No Iterations 5
DILUPBiCGStab:  Solving for Uz, Initial residual = 0.0357856, Final residual = 2.1497e-05, No Iterations 5
linear solve U 252129
[OGL LOG] init_host_sparsity_pattern : 72 ms
[OGL LOG] matrix not stored update host matrix
[OGL LOG] update_host_mtx : 35 ms
[OGL LOG] matrix is not yet sorted, sorting host matrix
[OGL LOG] sort_host_mtx_sparsity_pattern : 51 ms
[OGL LOG] sort_host_mtx : 27 ms
[OGL LOG] init_preconditioner : 0 ms
 CG create  precond 
[OGL LOG] solve : 96 ms
BJcudaGKOCG:  Solving for p, Initial residual = 0.0386705, Final residual = 9.81898e-05, No Iterations 167
linear solve p 300565
time step continuity errors : sum local = 4.2627e-08, global = 2.47719e-20, cumulative = 7.4644e-21
[OGL LOG] init_host_sparsity_pattern : 75 ms
[OGL LOG] matrix not stored update host matrix
[OGL LOG] update_host_mtx : 38 ms
[OGL LOG] matrix is not yet sorted, sorting host matrix
[OGL LOG] sort_host_mtx_sparsity_pattern : 53 ms
[OGL LOG] sort_host_mtx : 27 ms
[OGL LOG] init_preconditioner : 0 ms
 CG create  precond 
[OGL LOG] solve : 93 ms
BJcudaGKOCG:  Solving for p, Initial residual = 0.0326519, Final residual = 9.36464e-05, No Iterations 166
linear solve p 305094
time step continuity errors : sum local = 4.05657e-08, global = -6.37332e-21, cumulative = 1.09108e-21
ExecutionTime = 14.67 s  ClockTime = 15 s

Time = 0.01

Courant Number mean: 0.0934677 max: 0.606123
DILUPBiCGStab:  Solving for Ux, Initial residual = 0.00720773, Final residual = 2.06887e-06, No Iterations 5
DILUPBiCGStab:  Solving for Uy, Initial residual = 0.0161007, Final residual = 2.54279e-06, No Iterations 5
DILUPBiCGStab:  Solving for Uz, Initial residual = 0.031188, Final residual = 1.54449e-05, No Iterations 5
linear solve U 253608
[OGL LOG] init_host_sparsity_pattern : 72 ms
[OGL LOG] matrix not stored update host matrix
[OGL LOG] update_host_mtx : 35 ms
[OGL LOG] matrix is not yet sorted, sorting host matrix
[OGL LOG] sort_host_mtx_sparsity_pattern : 51 ms
[OGL LOG] sort_host_mtx : 27 ms
[OGL LOG] init_preconditioner : 0 ms
 CG create  precond 
[OGL LOG] solve : 99 ms
BJcudaGKOCG:  Solving for p, Initial residual = 0.02717, Final residual = 9.96767e-05, No Iterations 177
linear solve p 303135
time step continuity errors : sum local = 5.12277e-08, global = 6.85117e-21, cumulative = 7.94224e-21
[OGL LOG] init_host_sparsity_pattern : 72 ms
[OGL LOG] matrix not stored update host matrix
[OGL LOG] update_host_mtx : 35 ms
[OGL LOG] matrix is not yet sorted, sorting host matrix
[OGL LOG] sort_host_mtx_sparsity_pattern : 51 ms
[OGL LOG] sort_host_mtx : 28 ms
[OGL LOG] init_preconditioner : 0 ms
 CG create  precond 
[OGL LOG] solve : 92 ms
BJcudaGKOCG:  Solving for p, Initial residual = 0.0233634, Final residual = 9.74657e-05, No Iterations 164
linear solve p 296024
time step continuity errors : sum local = 4.50827e-08, global = -2.47118e-20, cumulative = -1.67696e-20
ExecutionTime = 15.68 s  ClockTime = 16 s

End

