/*---------------------------------------------------------------------------*\
  =========                 |
  \\      /  F ield         | OpenFOAM: The Open Source CFD Toolbox
   \\    /   O peration     | Website:  https://openfoam.org
    \\  /    A nd           | Version:  8
     \\/     M anipulation  |
\*---------------------------------------------------------------------------*/
Build  : 8-14d69e1ee166
Exec   : icoFoam
Date   : Jul 29 2021
Time   : 03:41:45
Host   : "guyot.icl.utk.edu"
PID    : 70045
I/O    : uncollated
Case   : /home/greole/code/OBR/lidDrivenCavity3D/Variation_mesh/45/Variation_matrix_solver/CG_NoPrecond_Serial/base
nProcs : 1
sigFpe : Enabling floating point exception trapping (FOAM_SIGFPE).
fileModificationChecking : Monitoring run-time modified files using timeStampMaster (fileModificationSkew 10)
allowSystemOperations : Allowing user-supplied system call operations

// * * * * * * * * * * * * * * * * * * * * * * * * * * * * * * * * * * * * * //
Create time

Create mesh for time = 0

Reading transportProperties

Reading field p

Reading field U

Reading/calculating face flux field phi


Starting time loop

Time = 0.001

Courant Number mean: 0 max: 0
DILUPBiCGStab:  Solving for Ux, Initial residual = 1, Final residual = 4.36896e-05, No Iterations 5
DILUPBiCGStab:  Solving for Uy:  solution singularity
DILUPBiCGStab:  Solving for Uz:  solution singularity
linear solve U 34063
nonePCG:  Solving for p, Initial residual = 1, Final residual = 9.30592e-05, No Iterations 349
linear solve p 313460
time step continuity errors : sum local = 5.33062e-08, global = 7.80225e-21, cumulative = 7.80225e-21
nonePCG:  Solving for p, Initial residual = 0.634891, Final residual = 9.92882e-05, No Iterations 344
linear solve p 314318
time step continuity errors : sum local = 8.21125e-08, global = 3.86466e-21, cumulative = 1.16669e-20
ExecutionTime = 1.13 s  ClockTime = 1 s

Time = 0.002

Courant Number mean: 0.024462 max: 0.283008
DILUPBiCGStab:  Solving for Ux, Initial residual = 0.172563, Final residual = 9.21356e-06, No Iterations 5
DILUPBiCGStab:  Solving for Uy, Initial residual = 0.303006, Final residual = 1.34753e-05, No Iterations 5
DILUPBiCGStab:  Solving for Uz, Initial residual = 0.966836, Final residual = 5.38959e-05, No Iterations 5
linear solve U 63277
nonePCG:  Solving for p, Initial residual = 0.502478, Final residual = 9.83587e-05, No Iterations 341
linear solve p 314965
time step continuity errors : sum local = 7.85844e-08, global = -4.73143e-21, cumulative = 6.93548e-21
nonePCG:  Solving for p, Initial residual = 0.411867, Final residual = 9.69833e-05, No Iterations 339
linear solve p 311127
time step continuity errors : sum local = 8.03617e-08, global = -3.04284e-21, cumulative = 3.89263e-21
ExecutionTime = 1.87 s  ClockTime = 2 s

Time = 0.003

Courant Number mean: 0.0369602 max: 0.358121
DILUPBiCGStab:  Solving for Ux, Initial residual = 0.0596416, Final residual = 3.42624e-06, No Iterations 5
DILUPBiCGStab:  Solving for Uy, Initial residual = 0.101744, Final residual = 2.38969e-06, No Iterations 5
DILUPBiCGStab:  Solving for Uz, Initial residual = 0.132172, Final residual = 6.31785e-06, No Iterations 5
linear solve U 62684
nonePCG:  Solving for p, Initial residual = 0.230428, Final residual = 9.99485e-05, No Iterations 321
linear solve p 292900
time step continuity errors : sum local = 6.0652e-08, global = -1.78427e-21, cumulative = 2.10836e-21
nonePCG:  Solving for p, Initial residual = 0.185957, Final residual = 9.81907e-05, No Iterations 318
linear solve p 286220
time step continuity errors : sum local = 5.88812e-08, global = -2.22786e-21, cumulative = -1.19495e-22
ExecutionTime = 2.54 s  ClockTime = 2 s

Time = 0.004

Courant Number mean: 0.0442727 max: 0.378745
DILUPBiCGStab:  Solving for Ux, Initial residual = 0.0352234, Final residual = 8.3001e-07, No Iterations 5
DILUPBiCGStab:  Solving for Uy, Initial residual = 0.0646903, Final residual = 1.39502e-06, No Iterations 5
DILUPBiCGStab:  Solving for Uz, Initial residual = 0.110166, Final residual = 4.02278e-06, No Iterations 5
linear solve U 64967
nonePCG:  Solving for p, Initial residual = 0.110946, Final residual = 9.64165e-05, No Iterations 314
linear solve p 287751
time step continuity errors : sum local = 5.61277e-08, global = -4.23373e-21, cumulative = -4.35323e-21
nonePCG:  Solving for p, Initial residual = 0.0875085, Final residual = 9.9956e-05, No Iterations 310
linear solve p 280867
time step continuity errors : sum local = 5.8914e-08, global = 1.10372e-20, cumulative = 6.68396e-21
ExecutionTime = 3.21 s  ClockTime = 3 s

Time = 0.005

Courant Number mean: 0.0495667 max: 0.388679
DILUPBiCGStab:  Solving for Ux, Initial residual = 0.0246458, Final residual = 2.72508e-07, No Iterations 5
DILUPBiCGStab:  Solving for Uy, Initial residual = 0.0448026, Final residual = 7.79605e-07, No Iterations 5
DILUPBiCGStab:  Solving for Uz, Initial residual = 0.0751201, Final residual = 1.60972e-06, No Iterations 5
linear solve U 64008
nonePCG:  Solving for p, Initial residual = 0.0544002, Final residual = 9.28158e-05, No Iterations 308
linear solve p 276613
time step continuity errors : sum local = 5.30762e-08, global = 2.02847e-20, cumulative = 2.69687e-20
nonePCG:  Solving for p, Initial residual = 0.0447812, Final residual = 9.80031e-05, No Iterations 306
linear solve p 276998
time step continuity errors : sum local = 5.61622e-08, global = -1.50611e-20, cumulative = 1.19076e-20
ExecutionTime = 3.86 s  ClockTime = 4 s

Time = 0.006

Courant Number mean: 0.0537211 max: 0.394649
DILUPBiCGStab:  Solving for Ux, Initial residual = 0.0187075, Final residual = 1.48289e-07, No Iterations 5
DILUPBiCGStab:  Solving for Uy, Initial residual = 0.0343188, Final residual = 3.0321e-07, No Iterations 5
DILUPBiCGStab:  Solving for Uz, Initial residual = 0.0587992, Final residual = 9.51553e-07, No Iterations 5
linear solve U 63766
nonePCG:  Solving for p, Initial residual = 0.0352486, Final residual = 9.27488e-05, No Iterations 306
linear solve p 274855
time step continuity errors : sum local = 5.28601e-08, global = -1.46579e-20, cumulative = -2.75036e-21
nonePCG:  Solving for p, Initial residual = 0.0292123, Final residual = 9.89336e-05, No Iterations 152
linear solve p 140666
time step continuity errors : sum local = 6.88578e-08, global = 6.42744e-21, cumulative = 3.67707e-21
ExecutionTime = 4.38 s  ClockTime = 4 s

Time = 0.007

Courant Number mean: 0.0570781 max: 0.398759
DILUPBiCGStab:  Solving for Ux, Initial residual = 0.0148946, Final residual = 9.74521e-08, No Iterations 5
DILUPBiCGStab:  Solving for Uy, Initial residual = 0.0275045, Final residual = 2.15343e-07, No Iterations 5
DILUPBiCGStab:  Solving for Uz, Initial residual = 0.0489045, Final residual = 6.23243e-07, No Iterations 5
linear solve U 63970
nonePCG:  Solving for p, Initial residual = 0.0260173, Final residual = 9.93915e-05, No Iterations 304
linear solve p 282384
time step continuity errors : sum local = 5.68689e-08, global = 9.75e-22, cumulative = 4.65207e-21
nonePCG:  Solving for p, Initial residual = 0.022214, Final residual = 9.36383e-05, No Iterations 139
linear solve p 128549
time step continuity errors : sum local = 5.76453e-08, global = -2.53938e-20, cumulative = -2.07418e-20
ExecutionTime = 4.89 s  ClockTime = 5 s

Time = 0.008

Courant Number mean: 0.0599096 max: 0.401788
DILUPBiCGStab:  Solving for Ux, Initial residual = 0.0122697, Final residual = 7.95516e-08, No Iterations 5
DILUPBiCGStab:  Solving for Uy, Initial residual = 0.022744, Final residual = 1.10452e-07, No Iterations 5
DILUPBiCGStab:  Solving for Uz, Initial residual = 0.041409, Final residual = 4.26151e-07, No Iterations 5
linear solve U 64088
nonePCG:  Solving for p, Initial residual = 0.0196663, Final residual = 9.35197e-05, No Iterations 302
linear solve p 281687
time step continuity errors : sum local = 5.36498e-08, global = -5.82694e-21, cumulative = -2.65687e-20
nonePCG:  Solving for p, Initial residual = 0.0170221, Final residual = 9.76773e-05, No Iterations 300
linear solve p 275068
time step continuity errors : sum local = 5.61507e-08, global = 2.25899e-20, cumulative = -3.97883e-21
ExecutionTime = 5.54 s  ClockTime = 5 s

Time = 0.009

Courant Number mean: 0.0623367 max: 0.404136
DILUPBiCGStab:  Solving for Ux, Initial residual = 0.010311, Final residual = 6.70928e-08, No Iterations 5
DILUPBiCGStab:  Solving for Uy, Initial residual = 0.0192381, Final residual = 9.20599e-08, No Iterations 5
DILUPBiCGStab:  Solving for Uz, Initial residual = 0.0352181, Final residual = 2.96431e-07, No Iterations 5
linear solve U 62010
nonePCG:  Solving for p, Initial residual = 0.0163035, Final residual = 9.91334e-05, No Iterations 135
linear solve p 125180
time step continuity errors : sum local = 6.15204e-08, global = -4.67738e-21, cumulative = -8.65621e-21
nonePCG:  Solving for p, Initial residual = 0.0142541, Final residual = 9.59374e-05, No Iterations 132
linear solve p 123792
time step continuity errors : sum local = 5.63616e-08, global = -2.1669e-20, cumulative = -3.03253e-20
ExecutionTime = 5.89 s  ClockTime = 6 s

Time = 0.01

Courant Number mean: 0.0644325 max: 0.406011
DILUPBiCGStab:  Solving for Ux, Initial residual = 0.00881616, Final residual = 6.13652e-08, No Iterations 5
DILUPBiCGStab:  Solving for Uy, Initial residual = 0.0165605, Final residual = 6.41675e-08, No Iterations 5
DILUPBiCGStab:  Solving for Uz, Initial residual = 0.0306054, Final residual = 2.27965e-07, No Iterations 5
linear solve U 63598
nonePCG:  Solving for p, Initial residual = 0.0138927, Final residual = 8.87831e-05, No Iterations 133
linear solve p 124593
time step continuity errors : sum local = 5.49188e-08, global = 1.9799e-20, cumulative = -1.05262e-20
nonePCG:  Solving for p, Initial residual = 0.012192, Final residual = 9.80704e-05, No Iterations 128
linear solve p 118752
time step continuity errors : sum local = 5.80267e-08, global = 3.09546e-21, cumulative = -7.43076e-21
ExecutionTime = 6.23 s  ClockTime = 6 s

End

