/*---------------------------------------------------------------------------*\
  =========                 |
  \\      /  F ield         | OpenFOAM: The Open Source CFD Toolbox
   \\    /   O peration     | Website:  https://openfoam.org
    \\  /    A nd           | Version:  8
     \\/     M anipulation  |
\*---------------------------------------------------------------------------*/
Build  : 8-40a5a48f630f
Exec   : icoFoam
Date   : Jul 28 2021
Time   : 11:58:18
Host   : "uc2n449.localdomain"
PID    : 1414017
I/O    : uncollated
Case   : /pfs/data5/home/kit/scc/nq7776/code/OBR/lidDrivenCavity3D/Variation_mesh/90/Variation_matrix_solver/CG_DIC_Serial/base
nProcs : 1
sigFpe : Enabling floating point exception trapping (FOAM_SIGFPE).
fileModificationChecking : Monitoring run-time modified files using timeStampMaster (fileModificationSkew 10)
allowSystemOperations : Allowing user-supplied system call operations

// * * * * * * * * * * * * * * * * * * * * * * * * * * * * * * * * * * * * * //
Create time

Create mesh for time = 0

Reading transportProperties

Reading field p

Reading field U

Reading/calculating face flux field phi


Starting time loop

Time = 0.001

Courant Number mean: 0 max: 0
nonePBiCGStab:  Solving for Ux, Initial residual = 1, Final residual = 0.0756268, No Iterations 5
nonePBiCGStab:  Solving for Uy, Initial residual = 0, Final residual = 0, No Iterations 0
nonePBiCGStab:  Solving for Uz, Initial residual = 0, Final residual = 0, No Iterations 0
linear solve U 187
DICPCG:  Solving for p, Initial residual = 1, Final residual = 8.47594e-05, No Iterations 217
linear solve p 3747
time step continuity errors : sum local = 3.43981e-08, global = -7.98472e-21, cumulative = -7.98472e-21
DICPCG:  Solving for p, Initial residual = 0.701335, Final residual = 8.70575e-05, No Iterations 217
linear solve p 3731
time step continuity errors : sum local = 4.91626e-08, global = -4.93986e-21, cumulative = -1.29246e-20
ExecutionTime = 10.75 s  ClockTime = 11 s

Time = 0.002

Courant Number mean: 0.0400999 max: 0.699776
nonePBiCGStab:  Solving for Ux, Initial residual = 0.140592, Final residual = 0.0354107, No Iterations 5
nonePBiCGStab:  Solving for Uy, Initial residual = 0.428237, Final residual = 0.104275, No Iterations 5
nonePBiCGStab:  Solving for Uz, Initial residual = 0.986079, Final residual = 0.278902, No Iterations 5
linear solve U 415
DICPCG:  Solving for p, Initial residual = 0.764359, Final residual = 9.89324e-05, No Iterations 221
linear solve p 3820
time step continuity errors : sum local = 8.95401e-08, global = -1.13481e-21, cumulative = -1.40594e-20
DICPCG:  Solving for p, Initial residual = 0.687252, Final residual = 9.56543e-05, No Iterations 136
linear solve p 2319
time step continuity errors : sum local = 1.05342e-07, global = 1.70495e-21, cumulative = -1.23544e-20
ExecutionTime = 17.71 s  ClockTime = 18 s

Time = 0.003

Courant Number mean: 0.0633457 max: 0.801262
nonePBiCGStab:  Solving for Ux, Initial residual = 0.0595489, Final residual = 0.0123778, No Iterations 5
nonePBiCGStab:  Solving for Uy, Initial residual = 0.182644, Final residual = 0.0479882, No Iterations 5
nonePBiCGStab:  Solving for Uz, Initial residual = 0.661159, Final residual = 0.173388, No Iterations 5
linear solve U 408
DICPCG:  Solving for p, Initial residual = 0.756364, Final residual = 9.82628e-05, No Iterations 221
linear solve p 3798
time step continuity errors : sum local = 6.73758e-08, global = -4.00525e-21, cumulative = -1.63597e-20
DICPCG:  Solving for p, Initial residual = 0.685943, Final residual = 8.69126e-05, No Iterations 108
linear solve p 1870
time step continuity errors : sum local = 6.26852e-08, global = 7.2622e-21, cumulative = -9.09749e-21
ExecutionTime = 24.19 s  ClockTime = 24 s

Time = 0.004

Courant Number mean: 0.0762488 max: 0.816882
nonePBiCGStab:  Solving for Ux, Initial residual = 0.0365997, Final residual = 0.00792731, No Iterations 5
nonePBiCGStab:  Solving for Uy, Initial residual = 0.127771, Final residual = 0.0355164, No Iterations 5
nonePBiCGStab:  Solving for Uz, Initial residual = 0.423319, Final residual = 0.0984625, No Iterations 5
linear solve U 415
DICPCG:  Solving for p, Initial residual = 0.65154, Final residual = 9.16101e-05, No Iterations 217
linear solve p 3721
time step continuity errors : sum local = 6.27469e-08, global = -2.60885e-20, cumulative = -3.5186e-20
DICPCG:  Solving for p, Initial residual = 0.559911, Final residual = 8.88294e-05, No Iterations 216
linear solve p 3711
time step continuity errors : sum local = 6.21506e-08, global = 2.30959e-21, cumulative = -3.28764e-20
ExecutionTime = 32.44 s  ClockTime = 33 s

Time = 0.005

Courant Number mean: 0.0866629 max: 0.829154
nonePBiCGStab:  Solving for Ux, Initial residual = 0.0275297, Final residual = 0.00602852, No Iterations 5
nonePBiCGStab:  Solving for Uy, Initial residual = 0.0823317, Final residual = 0.025561, No Iterations 5
nonePBiCGStab:  Solving for Uz, Initial residual = 0.238708, Final residual = 0.0586973, No Iterations 5
linear solve U 411
DICPCG:  Solving for p, Initial residual = 0.682159, Final residual = 9.19856e-05, No Iterations 103
linear solve p 1785
time step continuity errors : sum local = 6.04875e-08, global = -1.81486e-20, cumulative = -5.1025e-20
DICPCG:  Solving for p, Initial residual = 0.601931, Final residual = 9.26994e-05, No Iterations 102
linear solve p 1763
time step continuity errors : sum local = 5.81762e-08, global = -1.99113e-21, cumulative = -5.30161e-20
ExecutionTime = 36.8 s  ClockTime = 37 s

Time = 0.006

Courant Number mean: 0.0947352 max: 0.835985
nonePBiCGStab:  Solving for Ux, Initial residual = 0.0211533, Final residual = 0.00473706, No Iterations 5
nonePBiCGStab:  Solving for Uy, Initial residual = 0.0655348, Final residual = 0.0190437, No Iterations 5
nonePBiCGStab:  Solving for Uz, Initial residual = 0.186533, Final residual = 0.0498903, No Iterations 5
linear solve U 413
DICPCG:  Solving for p, Initial residual = 0.601201, Final residual = 9.93332e-05, No Iterations 103
linear solve p 1770
time step continuity errors : sum local = 7.52696e-08, global = 8.41901e-21, cumulative = -4.45971e-20
DICPCG:  Solving for p, Initial residual = 0.514853, Final residual = 9.66999e-05, No Iterations 98
linear solve p 1687
time step continuity errors : sum local = 6.48776e-08, global = -3.58685e-21, cumulative = -4.8184e-20
ExecutionTime = 41.08 s  ClockTime = 41 s

Time = 0.007

Courant Number mean: 0.101593 max: 0.841231
nonePBiCGStab:  Solving for Ux, Initial residual = 0.017692, Final residual = 0.00376549, No Iterations 5
nonePBiCGStab:  Solving for Uy, Initial residual = 0.0505144, Final residual = 0.015473, No Iterations 5
nonePBiCGStab:  Solving for Uz, Initial residual = 0.140634, Final residual = 0.0383548, No Iterations 5
linear solve U 412
DICPCG:  Solving for p, Initial residual = 0.635031, Final residual = 8.73055e-05, No Iterations 211
linear solve p 3600
time step continuity errors : sum local = 5.05275e-08, global = -9.23292e-21, cumulative = -5.74169e-20
DICPCG:  Solving for p, Initial residual = 0.55013, Final residual = 9.29015e-05, No Iterations 210
linear solve p 3605
time step continuity errors : sum local = 5.34582e-08, global = 3.96097e-21, cumulative = -5.34559e-20
ExecutionTime = 49.09 s  ClockTime = 49 s

Time = 0.008

Courant Number mean: 0.107404 max: 0.84502
nonePBiCGStab:  Solving for Ux, Initial residual = 0.0147335, Final residual = 0.00327936, No Iterations 5
nonePBiCGStab:  Solving for Uy, Initial residual = 0.0431803, Final residual = 0.0108767, No Iterations 5
nonePBiCGStab:  Solving for Uz, Initial residual = 0.120904, Final residual = 0.0348589, No Iterations 5
linear solve U 416
DICPCG:  Solving for p, Initial residual = 0.571661, Final residual = 9.81047e-05, No Iterations 206
linear solve p 3542
time step continuity errors : sum local = 6.02446e-08, global = 7.25353e-21, cumulative = -4.62024e-20
DICPCG:  Solving for p, Initial residual = 0.487844, Final residual = 9.84597e-05, No Iterations 104
linear solve p 1797
time step continuity errors : sum local = 7.44346e-08, global = 8.43215e-21, cumulative = -3.77702e-20
ExecutionTime = 55.25 s  ClockTime = 56 s

Time = 0.009

Courant Number mean: 0.112565 max: 0.848127
nonePBiCGStab:  Solving for Ux, Initial residual = 0.0130716, Final residual = 0.0025244, No Iterations 5
nonePBiCGStab:  Solving for Uy, Initial residual = 0.0358805, Final residual = 0.00962224, No Iterations 5
nonePBiCGStab:  Solving for Uz, Initial residual = 0.100836, Final residual = 0.0289632, No Iterations 5
linear solve U 409
DICPCG:  Solving for p, Initial residual = 0.603128, Final residual = 9.42219e-05, No Iterations 208
linear solve p 3579
time step continuity errors : sum local = 5.40647e-08, global = -1.47589e-20, cumulative = -5.25291e-20
DICPCG:  Solving for p, Initial residual = 0.518817, Final residual = 9.92609e-05, No Iterations 191
linear solve p 3269
time step continuity errors : sum local = 5.68539e-08, global = 1.34324e-20, cumulative = -3.90967e-20
ExecutionTime = 62.91 s  ClockTime = 63 s

Time = 0.01

Courant Number mean: 0.117165 max: 0.850567
nonePBiCGStab:  Solving for Ux, Initial residual = 0.0112734, Final residual = 0.00208978, No Iterations 5
nonePBiCGStab:  Solving for Uy, Initial residual = 0.031935, Final residual = 0.00700954, No Iterations 5
nonePBiCGStab:  Solving for Uz, Initial residual = 0.0915699, Final residual = 0.0268073, No Iterations 5
linear solve U 407
DICPCG:  Solving for p, Initial residual = 0.546681, Final residual = 9.57917e-05, No Iterations 206
linear solve p 3520
time step continuity errors : sum local = 5.73795e-08, global = -1.17137e-20, cumulative = -5.08104e-20
DICPCG:  Solving for p, Initial residual = 0.467356, Final residual = 8.42737e-05, No Iterations 206
linear solve p 3528
time step continuity errors : sum local = 5.05701e-08, global = -1.74291e-21, cumulative = -5.25533e-20
ExecutionTime = 70.76 s  ClockTime = 71 s

End

