/*---------------------------------------------------------------------------*\
  =========                 |
  \\      /  F ield         | OpenFOAM: The Open Source CFD Toolbox
   \\    /   O peration     | Website:  https://openfoam.org
    \\  /    A nd           | Version:  8
     \\/     M anipulation  |
\*---------------------------------------------------------------------------*/
Build  : 8-ef60d22ea792
Exec   : icoFoam
Date   : Jul 28 2021
Time   : 23:34:54
Host   : "uc2n420.localdomain"
PID    : 980066
I/O    : uncollated
Case   : /pfs/data5/home/kit/scc/nq7776/code/OBR/lidDrivenCavity3D/Variation_mesh/65/Variation_matrix_solver/CG_NoPrecond_Serial/base
nProcs : 1
sigFpe : Enabling floating point exception trapping (FOAM_SIGFPE).
fileModificationChecking : Monitoring run-time modified files using timeStampMaster (fileModificationSkew 10)
allowSystemOperations : Allowing user-supplied system call operations

// * * * * * * * * * * * * * * * * * * * * * * * * * * * * * * * * * * * * * //
Create time

Create mesh for time = 0

Reading transportProperties

Reading field p

Reading field U

Reading/calculating face flux field phi


Starting time loop

Time = 0.001

Courant Number mean: 0 max: 0
DILUPBiCGStab:  Solving for Ux, Initial residual = 1, Final residual = 0.0009093, No Iterations 5
DILUPBiCGStab:  Solving for Uy:  solution singularity
DILUPBiCGStab:  Solving for Uz:  solution singularity
linear solve U 130964
nonePCG:  Solving for p, Initial residual = 1, Final residual = 9.41245e-05, No Iterations 509
linear solve p 1665663
time step continuity errors : sum local = 5.52999e-08, global = 1.05642e-20, cumulative = 1.05642e-20
nonePCG:  Solving for p, Initial residual = 0.710529, Final residual = 9.93255e-05, No Iterations 502
linear solve p 1653919
time step continuity errors : sum local = 7.85725e-08, global = -1.20147e-20, cumulative = -1.45046e-21
ExecutionTime = 4.66 s  ClockTime = 4 s

Time = 0.002

Courant Number mean: 0.036459 max: 0.470838
DILUPBiCGStab:  Solving for Ux, Initial residual = 0.154387, Final residual = 0.000271567, No Iterations 5
DILUPBiCGStab:  Solving for Uy, Initial residual = 0.350436, Final residual = 0.000506098, No Iterations 5
DILUPBiCGStab:  Solving for Uz, Initial residual = 0.982773, Final residual = 0.0017687, No Iterations 5
linear solve U 249250
nonePCG:  Solving for p, Initial residual = 0.645966, Final residual = 9.39566e-05, No Iterations 499
linear solve p 1641321
time step continuity errors : sum local = 7.87301e-08, global = -1.25191e-20, cumulative = -1.39696e-20
nonePCG:  Solving for p, Initial residual = 0.569399, Final residual = 9.91848e-05, No Iterations 497
linear solve p 1629940
time step continuity errors : sum local = 8.5148e-08, global = 3.73252e-21, cumulative = -1.02371e-20
ExecutionTime = 8.33 s  ClockTime = 8 s

Time = 0.003

Courant Number mean: 0.0547095 max: 0.564536
DILUPBiCGStab:  Solving for Ux, Initial residual = 0.050613, Final residual = 5.48088e-05, No Iterations 5
DILUPBiCGStab:  Solving for Uy, Initial residual = 0.109592, Final residual = 0.000120717, No Iterations 5
DILUPBiCGStab:  Solving for Uz, Initial residual = 0.389113, Final residual = 0.000649719, No Iterations 5
linear solve U 247892
nonePCG:  Solving for p, Initial residual = 0.547717, Final residual = 9.40369e-05, No Iterations 495
linear solve p 1625797
time step continuity errors : sum local = 5.50715e-08, global = 1.53748e-20, cumulative = 5.13774e-21
nonePCG:  Solving for p, Initial residual = 0.491465, Final residual = 8.91823e-05, No Iterations 494
linear solve p 1633137
time step continuity errors : sum local = 5.07424e-08, global = -1.3056e-20, cumulative = -7.91828e-21
ExecutionTime = 11.98 s  ClockTime = 12 s

Time = 0.004

Courant Number mean: 0.0645905 max: 0.579606
DILUPBiCGStab:  Solving for Ux, Initial residual = 0.0290686, Final residual = 3.32268e-05, No Iterations 5
DILUPBiCGStab:  Solving for Uy, Initial residual = 0.0718691, Final residual = 5.55056e-05, No Iterations 5
DILUPBiCGStab:  Solving for Uz, Initial residual = 0.208761, Final residual = 0.000261438, No Iterations 5
linear solve U 249475
nonePCG:  Solving for p, Initial residual = 0.316681, Final residual = 9.37951e-05, No Iterations 484
linear solve p 1598416
time step continuity errors : sum local = 4.87906e-08, global = 2.23918e-21, cumulative = -5.6791e-21
nonePCG:  Solving for p, Initial residual = 0.261919, Final residual = 9.89069e-05, No Iterations 480
linear solve p 1582063
time step continuity errors : sum local = 5.2078e-08, global = 4.34183e-21, cumulative = -1.33727e-21
ExecutionTime = 15.56 s  ClockTime = 15 s

Time = 0.005

Courant Number mean: 0.0722267 max: 0.589261
DILUPBiCGStab:  Solving for Ux, Initial residual = 0.0206402, Final residual = 1.4658e-05, No Iterations 5
DILUPBiCGStab:  Solving for Uy, Initial residual = 0.04455, Final residual = 3.50822e-05, No Iterations 5
DILUPBiCGStab:  Solving for Uz, Initial residual = 0.0745624, Final residual = 7.55494e-05, No Iterations 5
linear solve U 247062
nonePCG:  Solving for p, Initial residual = 0.213995, Final residual = 9.95393e-05, No Iterations 461
linear solve p 1512087
time step continuity errors : sum local = 4.53443e-08, global = 7.68017e-21, cumulative = 6.3429e-21
nonePCG:  Solving for p, Initial residual = 0.179762, Final residual = 9.8841e-05, No Iterations 458
linear solve p 1507511
time step continuity errors : sum local = 4.47647e-08, global = 5.24623e-21, cumulative = 1.15891e-20
ExecutionTime = 18.97 s  ClockTime = 19 s

Time = 0.006

Courant Number mean: 0.0781056 max: 0.595023
DILUPBiCGStab:  Solving for Ux, Initial residual = 0.0153439, Final residual = 1.31841e-05, No Iterations 5
DILUPBiCGStab:  Solving for Uy, Initial residual = 0.0341657, Final residual = 1.47462e-05, No Iterations 5
DILUPBiCGStab:  Solving for Uz, Initial residual = 0.0671551, Final residual = 6.50548e-05, No Iterations 5
linear solve U 248192
nonePCG:  Solving for p, Initial residual = 0.126597, Final residual = 9.77384e-05, No Iterations 223
linear solve p 736003
time step continuity errors : sum local = 5.20763e-08, global = -8.08789e-21, cumulative = 3.50124e-21
nonePCG:  Solving for p, Initial residual = 0.103677, Final residual = 9.81775e-05, No Iterations 217
linear solve p 719160
time step continuity errors : sum local = 4.65125e-08, global = -2.42e-20, cumulative = -2.06987e-20
ExecutionTime = 20.83 s  ClockTime = 21 s

Time = 0.007

Courant Number mean: 0.0829416 max: 0.598973
DILUPBiCGStab:  Solving for Ux, Initial residual = 0.0121948, Final residual = 5.65139e-06, No Iterations 5
DILUPBiCGStab:  Solving for Uy, Initial residual = 0.0270209, Final residual = 1.49273e-05, No Iterations 5
DILUPBiCGStab:  Solving for Uz, Initial residual = 0.0486869, Final residual = 4.09662e-05, No Iterations 5
linear solve U 248648
nonePCG:  Solving for p, Initial residual = 0.0845367, Final residual = 9.78452e-05, No Iterations 212
linear solve p 701015
time step continuity errors : sum local = 4.30646e-08, global = 1.36944e-21, cumulative = -1.93293e-20
nonePCG:  Solving for p, Initial residual = 0.0700068, Final residual = 9.62955e-05, No Iterations 210
linear solve p 705466
time step continuity errors : sum local = 4.2315e-08, global = 9.62476e-21, cumulative = -9.70451e-21
ExecutionTime = 22.63 s  ClockTime = 22 s

Time = 0.008

Courant Number mean: 0.0869902 max: 0.601971
DILUPBiCGStab:  Solving for Ux, Initial residual = 0.0100251, Final residual = 4.75437e-06, No Iterations 5
DILUPBiCGStab:  Solving for Uy, Initial residual = 0.0221927, Final residual = 6.29448e-06, No Iterations 5
DILUPBiCGStab:  Solving for Uz, Initial residual = 0.0417584, Final residual = 2.72297e-05, No Iterations 5
linear solve U 247845
nonePCG:  Solving for p, Initial residual = 0.0542294, Final residual = 9.58357e-05, No Iterations 217
linear solve p 717826
time step continuity errors : sum local = 4.93548e-08, global = -1.54646e-21, cumulative = -1.1251e-20
nonePCG:  Solving for p, Initial residual = 0.0450408, Final residual = 9.63347e-05, No Iterations 206
linear solve p 681666
time step continuity errors : sum local = 4.44789e-08, global = 7.77467e-21, cumulative = -3.47631e-21
ExecutionTime = 24.45 s  ClockTime = 24 s

Time = 0.009

Courant Number mean: 0.0904653 max: 0.604263
DILUPBiCGStab:  Solving for Ux, Initial residual = 0.00840365, Final residual = 2.59073e-06, No Iterations 5
DILUPBiCGStab:  Solving for Uy, Initial residual = 0.0188047, Final residual = 6.39726e-06, No Iterations 5
DILUPBiCGStab:  Solving for Uz, Initial residual = 0.0358008, Final residual = 2.15459e-05, No Iterations 5
linear solve U 250225
nonePCG:  Solving for p, Initial residual = 0.0386327, Final residual = 9.8917e-05, No Iterations 205
linear solve p 681468
time step continuity errors : sum local = 4.3044e-08, global = 6.56777e-21, cumulative = 3.09147e-21
nonePCG:  Solving for p, Initial residual = 0.0326062, Final residual = 9.90665e-05, No Iterations 202
linear solve p 670415
time step continuity errors : sum local = 4.28417e-08, global = -5.84935e-22, cumulative = 2.50653e-21
ExecutionTime = 26.2 s  ClockTime = 26 s

Time = 0.01

Courant Number mean: 0.0934677 max: 0.606123
DILUPBiCGStab:  Solving for Ux, Initial residual = 0.00720786, Final residual = 2.06838e-06, No Iterations 5
DILUPBiCGStab:  Solving for Uy, Initial residual = 0.016101, Final residual = 2.54482e-06, No Iterations 5
DILUPBiCGStab:  Solving for Uz, Initial residual = 0.0311953, Final residual = 1.54874e-05, No Iterations 5
linear solve U 247221
nonePCG:  Solving for p, Initial residual = 0.0271937, Final residual = 9.95022e-05, No Iterations 218
linear solve p 719059
time step continuity errors : sum local = 5.12615e-08, global = -2.12296e-20, cumulative = -1.87231e-20
nonePCG:  Solving for p, Initial residual = 0.0233848, Final residual = 9.4828e-05, No Iterations 200
linear solve p 662653
time step continuity errors : sum local = 4.39935e-08, global = -1.82357e-21, cumulative = -2.05466e-20
ExecutionTime = 27.97 s  ClockTime = 28 s

End

