/*---------------------------------------------------------------------------*\
  =========                 |
  \\      /  F ield         | OpenFOAM: The Open Source CFD Toolbox
   \\    /   O peration     | Website:  https://openfoam.org
    \\  /    A nd           | Version:  8
     \\/     M anipulation  |
\*---------------------------------------------------------------------------*/
Build  : 8-14d69e1ee166
Exec   : icoFoam
Date   : Jul 29 2021
Time   : 06:47:26
Host   : "guyot.icl.utk.edu"
PID    : 189226
I/O    : uncollated
Case   : /home/greole/code/OBR/lidDrivenCavity3D/Variation_mesh/85/Variation_matrix_solver/CG_BJ_CUDA/base
nProcs : 1
sigFpe : Enabling floating point exception trapping (FOAM_SIGFPE).
fileModificationChecking : Monitoring run-time modified files using timeStampMaster (fileModificationSkew 10)
allowSystemOperations : Allowing user-supplied system call operations

// * * * * * * * * * * * * * * * * * * * * * * * * * * * * * * * * * * * * * //
Create time

Create mesh for time = 0

Reading transportProperties

Reading field p

Reading field U

Reading/calculating face flux field phi


Starting time loop

Time = 0.001

Courant Number mean: 0 max: 0
DILUPBiCGStab:  Solving for Ux, Initial residual = 1, Final residual = 0.00382019, No Iterations 5
DILUPBiCGStab:  Solving for Uy:  solution singularity
DILUPBiCGStab:  Solving for Uz:  solution singularity
linear solve U 236671
[OGL LOG] init_host_sparsity_pattern : 280 ms
[OGL LOG] matrix not stored update host matrix
[OGL LOG] update_host_mtx : 137 ms
[OGL LOG] matrix is not yet sorted, compute sorting idxs
[OGL LOG] compute_sort : 6321 ms
[OGL LOG] matrix is not yet sorted, sorting host matrix
[OGL LOG] sort_host_mtx_sparsity_pattern : 123 ms
[OGL LOG] sort_host_mtx : 74 ms
[OGL LOG] init_preconditioner : 95 ms
 CG create  precond 
[OGL LOG] solve : 668 ms
BJcudaGKOCG:  Solving for p, Initial residual = 1, Final residual = 9.98812e-05, No Iterations 566
linear solve p 9413719
time step continuity errors : sum local = 5.83577e-08, global = -1.08435e-20, cumulative = -1.08435e-20
[OGL LOG] init_host_sparsity_pattern : 270 ms
[OGL LOG] matrix not stored update host matrix
[OGL LOG] update_host_mtx : 140 ms
[OGL LOG] matrix is not yet sorted, sorting host matrix
[OGL LOG] sort_host_mtx_sparsity_pattern : 112 ms
[OGL LOG] sort_host_mtx : 68 ms
[OGL LOG] init_preconditioner : 0 ms
 CG create  precond 
[OGL LOG] solve : 583 ms
BJcudaGKOCG:  Solving for p, Initial residual = 0.755065, Final residual = 9.88676e-05, No Iterations 546
linear solve p 1209291
time step continuity errors : sum local = 7.44944e-08, global = -6.11623e-21, cumulative = -1.69597e-20
ExecutionTime = 13.65 s  ClockTime = 14 s

Time = 0.002

Courant Number mean: 0.0479746 max: 0.66159
DILUPBiCGStab:  Solving for Ux, Initial residual = 0.144106, Final residual = 0.00147912, No Iterations 5
DILUPBiCGStab:  Solving for Uy, Initial residual = 0.396915, Final residual = 0.00365134, No Iterations 5
DILUPBiCGStab:  Solving for Uz, Initial residual = 0.988233, Final residual = 0.0100667, No Iterations 5
linear solve U 464041
[OGL LOG] init_host_sparsity_pattern : 269 ms
[OGL LOG] matrix not stored update host matrix
[OGL LOG] update_host_mtx : 139 ms
[OGL LOG] matrix is not yet sorted, sorting host matrix
[OGL LOG] sort_host_mtx_sparsity_pattern : 112 ms
[OGL LOG] sort_host_mtx : 65 ms
[OGL LOG] init_preconditioner : 0 ms
 CG create  precond 
[OGL LOG] solve : 566 ms
BJcudaGKOCG:  Solving for p, Initial residual = 0.745853, Final residual = 9.95137e-05, No Iterations 538
linear solve p 1187662
time step continuity errors : sum local = 9.25231e-08, global = -4.1801e-21, cumulative = -2.11398e-20
[OGL LOG] init_host_sparsity_pattern : 270 ms
[OGL LOG] matrix not stored update host matrix
[OGL LOG] update_host_mtx : 139 ms
[OGL LOG] matrix is not yet sorted, sorting host matrix
[OGL LOG] sort_host_mtx_sparsity_pattern : 109 ms
[OGL LOG] sort_host_mtx : 65 ms
[OGL LOG] init_preconditioner : 0 ms
 CG create  precond 
[OGL LOG] solve : 572 ms
BJcudaGKOCG:  Solving for p, Initial residual = 0.680825, Final residual = 9.51206e-05, No Iterations 537
linear solve p 1190112
time step continuity errors : sum local = 9.02666e-08, global = 1.44627e-23, cumulative = -2.11254e-20
ExecutionTime = 16.75 s  ClockTime = 17 s

Time = 0.003

Courant Number mean: 0.0723208 max: 0.775881
DILUPBiCGStab:  Solving for Ux, Initial residual = 0.0580472, Final residual = 0.000501162, No Iterations 5
DILUPBiCGStab:  Solving for Uy, Initial residual = 0.162049, Final residual = 0.00140395, No Iterations 5
DILUPBiCGStab:  Solving for Uz, Initial residual = 0.731054, Final residual = 0.0068209, No Iterations 5
linear solve U 473775
[OGL LOG] init_host_sparsity_pattern : 270 ms
[OGL LOG] matrix not stored update host matrix
[OGL LOG] update_host_mtx : 139 ms
[OGL LOG] matrix is not yet sorted, sorting host matrix
[OGL LOG] sort_host_mtx_sparsity_pattern : 113 ms
[OGL LOG] sort_host_mtx : 67 ms
[OGL LOG] init_preconditioner : 0 ms
 CG create  precond 
[OGL LOG] solve : 345 ms
BJcudaGKOCG:  Solving for p, Initial residual = 0.746261, Final residual = 9.83773e-05, No Iterations 322
linear solve p 971510
time step continuity errors : sum local = 8.22421e-08, global = 4.19239e-21, cumulative = -1.6933e-20
[OGL LOG] init_host_sparsity_pattern : 264 ms
[OGL LOG] matrix not stored update host matrix
[OGL LOG] update_host_mtx : 139 ms
[OGL LOG] matrix is not yet sorted, sorting host matrix
[OGL LOG] sort_host_mtx_sparsity_pattern : 115 ms
[OGL LOG] sort_host_mtx : 69 ms
[OGL LOG] init_preconditioner : 0 ms
 CG create  precond 
[OGL LOG] solve : 337 ms
BJcudaGKOCG:  Solving for p, Initial residual = 0.706485, Final residual = 9.77433e-05, No Iterations 317
linear solve p 960298
time step continuity errors : sum local = 7.42501e-08, global = 1.4022e-20, cumulative = -2.91101e-21
ExecutionTime = 19.43 s  ClockTime = 20 s

Time = 0.004

Courant Number mean: 0.0841987 max: 0.778378
DILUPBiCGStab:  Solving for Ux, Initial residual = 0.0310193, Final residual = 0.000293421, No Iterations 5
DILUPBiCGStab:  Solving for Uy, Initial residual = 0.113898, Final residual = 0.000994844, No Iterations 5
DILUPBiCGStab:  Solving for Uz, Initial residual = 0.457842, Final residual = 0.00357526, No Iterations 5
linear solve U 472832
[OGL LOG] init_host_sparsity_pattern : 270 ms
[OGL LOG] matrix not stored update host matrix
[OGL LOG] update_host_mtx : 137 ms
[OGL LOG] matrix is not yet sorted, sorting host matrix
[OGL LOG] sort_host_mtx_sparsity_pattern : 111 ms
[OGL LOG] sort_host_mtx : 68 ms
[OGL LOG] init_preconditioner : 0 ms
 CG create  precond 
[OGL LOG] solve : 315 ms
BJcudaGKOCG:  Solving for p, Initial residual = 0.59245, Final residual = 9.90769e-05, No Iterations 294
linear solve p 936693
time step continuity errors : sum local = 6.64544e-08, global = -1.22894e-20, cumulative = -1.52004e-20
[OGL LOG] init_host_sparsity_pattern : 270 ms
[OGL LOG] matrix not stored update host matrix
[OGL LOG] update_host_mtx : 139 ms
[OGL LOG] matrix is not yet sorted, sorting host matrix
[OGL LOG] sort_host_mtx_sparsity_pattern : 103 ms
[OGL LOG] sort_host_mtx : 65 ms
[OGL LOG] init_preconditioner : 0 ms
 CG create  precond 
[OGL LOG] solve : 314 ms
BJcudaGKOCG:  Solving for p, Initial residual = 0.52883, Final residual = 9.81353e-05, No Iterations 291
linear solve p 926537
time step continuity errors : sum local = 6.54149e-08, global = -2.07209e-20, cumulative = -3.59212e-20
ExecutionTime = 22.03 s  ClockTime = 22 s

Time = 0.005

Courant Number mean: 0.0944146 max: 0.789475
DILUPBiCGStab:  Solving for Ux, Initial residual = 0.0232301, Final residual = 0.000192063, No Iterations 5
DILUPBiCGStab:  Solving for Uy, Initial residual = 0.0587793, Final residual = 0.000431785, No Iterations 5
DILUPBiCGStab:  Solving for Uz, Initial residual = 0.267081, Final residual = 0.00209068, No Iterations 5
linear solve U 472511
[OGL LOG] init_host_sparsity_pattern : 270 ms
[OGL LOG] matrix not stored update host matrix
[OGL LOG] update_host_mtx : 139 ms
[OGL LOG] matrix is not yet sorted, sorting host matrix
[OGL LOG] sort_host_mtx_sparsity_pattern : 107 ms
[OGL LOG] sort_host_mtx : 68 ms
[OGL LOG] init_preconditioner : 0 ms
 CG create  precond 
[OGL LOG] solve : 531 ms
BJcudaGKOCG:  Solving for p, Initial residual = 0.548352, Final residual = 9.838e-05, No Iterations 505
linear solve p 1151758
time step continuity errors : sum local = 5.00909e-08, global = -8.67476e-21, cumulative = -4.4596e-20
[OGL LOG] init_host_sparsity_pattern : 270 ms
[OGL LOG] matrix not stored update host matrix
[OGL LOG] update_host_mtx : 139 ms
[OGL LOG] matrix is not yet sorted, sorting host matrix
[OGL LOG] sort_host_mtx_sparsity_pattern : 106 ms
[OGL LOG] sort_host_mtx : 68 ms
[OGL LOG] init_preconditioner : 0 ms
 CG create  precond 
[OGL LOG] solve : 539 ms
BJcudaGKOCG:  Solving for p, Initial residual = 0.495438, Final residual = 9.97202e-05, No Iterations 509
linear solve p 1158752
time step continuity errors : sum local = 5.02172e-08, global = 9.19101e-21, cumulative = -3.5405e-20
ExecutionTime = 25.09 s  ClockTime = 26 s

Time = 0.006

Courant Number mean: 0.101921 max: 0.795162
DILUPBiCGStab:  Solving for Ux, Initial residual = 0.0150873, Final residual = 0.000114136, No Iterations 5
DILUPBiCGStab:  Solving for Uy, Initial residual = 0.047537, Final residual = 0.000338828, No Iterations 5
DILUPBiCGStab:  Solving for Uz, Initial residual = 0.192123, Final residual = 0.00152737, No Iterations 5
linear solve U 472912
[OGL LOG] init_host_sparsity_pattern : 263 ms
[OGL LOG] matrix not stored update host matrix
[OGL LOG] update_host_mtx : 139 ms
[OGL LOG] matrix is not yet sorted, sorting host matrix
[OGL LOG] sort_host_mtx_sparsity_pattern : 103 ms
[OGL LOG] sort_host_mtx : 70 ms
[OGL LOG] init_preconditioner : 0 ms
 CG create  precond 
[OGL LOG] solve : 293 ms
BJcudaGKOCG:  Solving for p, Initial residual = 0.404201, Final residual = 9.8187e-05, No Iterations 275
linear solve p 905014
time step continuity errors : sum local = 5.07807e-08, global = -3.0571e-20, cumulative = -6.5976e-20
[OGL LOG] init_host_sparsity_pattern : 270 ms
[OGL LOG] matrix not stored update host matrix
[OGL LOG] update_host_mtx : 138 ms
[OGL LOG] matrix is not yet sorted, sorting host matrix
[OGL LOG] sort_host_mtx_sparsity_pattern : 109 ms
[OGL LOG] sort_host_mtx : 65 ms
[OGL LOG] init_preconditioner : 0 ms
 CG create  precond 
[OGL LOG] solve : 284 ms
BJcudaGKOCG:  Solving for p, Initial residual = 0.353003, Final residual = 9.63478e-05, No Iterations 267
linear solve p 903306
time step continuity errors : sum local = 4.70976e-08, global = -9.35647e-21, cumulative = -7.53325e-20
ExecutionTime = 27.63 s  ClockTime = 28 s

Time = 0.007

Courant Number mean: 0.108308 max: 0.798725
DILUPBiCGStab:  Solving for Ux, Initial residual = 0.0125492, Final residual = 8.34916e-05, No Iterations 5
DILUPBiCGStab:  Solving for Uy, Initial residual = 0.0315109, Final residual = 0.000143847, No Iterations 5
DILUPBiCGStab:  Solving for Uz, Initial residual = 0.108563, Final residual = 0.00105802, No Iterations 5
linear solve U 471451
[OGL LOG] init_host_sparsity_pattern : 270 ms
[OGL LOG] matrix not stored update host matrix
[OGL LOG] update_host_mtx : 139 ms
[OGL LOG] matrix is not yet sorted, sorting host matrix
[OGL LOG] sort_host_mtx_sparsity_pattern : 115 ms
[OGL LOG] sort_host_mtx : 68 ms
[OGL LOG] init_preconditioner : 0 ms
 CG create  precond 
[OGL LOG] solve : 268 ms
BJcudaGKOCG:  Solving for p, Initial residual = 0.348908, Final residual = 9.12966e-05, No Iterations 248
linear solve p 895382
time step continuity errors : sum local = 3.79723e-08, global = -8.97959e-21, cumulative = -8.43121e-20
[OGL LOG] init_host_sparsity_pattern : 270 ms
[OGL LOG] matrix not stored update host matrix
[OGL LOG] update_host_mtx : 138 ms
[OGL LOG] matrix is not yet sorted, sorting host matrix
[OGL LOG] sort_host_mtx_sparsity_pattern : 109 ms
[OGL LOG] sort_host_mtx : 65 ms
[OGL LOG] init_preconditioner : 0 ms
 CG create  precond 
[OGL LOG] solve : 264 ms
BJcudaGKOCG:  Solving for p, Initial residual = 0.303485, Final residual = 9.80901e-05, No Iterations 246
linear solve p 881675
time step continuity errors : sum local = 4.0366e-08, global = -1.22702e-20, cumulative = -9.65823e-20
ExecutionTime = 30.14 s  ClockTime = 31 s

Time = 0.008

Courant Number mean: 0.11358 max: 0.802057
DILUPBiCGStab:  Solving for Ux, Initial residual = 0.0094715, Final residual = 5.53771e-05, No Iterations 5
DILUPBiCGStab:  Solving for Uy, Initial residual = 0.0266834, Final residual = 0.000128764, No Iterations 5
DILUPBiCGStab:  Solving for Uz, Initial residual = 0.0870989, Final residual = 0.000747598, No Iterations 5
linear solve U 472519
[OGL LOG] init_host_sparsity_pattern : 269 ms
[OGL LOG] matrix not stored update host matrix
[OGL LOG] update_host_mtx : 139 ms
[OGL LOG] matrix is not yet sorted, sorting host matrix
[OGL LOG] sort_host_mtx_sparsity_pattern : 111 ms
[OGL LOG] sort_host_mtx : 65 ms
[OGL LOG] init_preconditioner : 0 ms
 CG create  precond 
[OGL LOG] solve : 265 ms
BJcudaGKOCG:  Solving for p, Initial residual = 0.25471, Final residual = 9.98059e-05, No Iterations 247
linear solve p 885636
time step continuity errors : sum local = 4.47852e-08, global = 1.04957e-20, cumulative = -8.60866e-20
[OGL LOG] init_host_sparsity_pattern : 270 ms
[OGL LOG] matrix not stored update host matrix
[OGL LOG] update_host_mtx : 139 ms
[OGL LOG] matrix is not yet sorted, sorting host matrix
[OGL LOG] sort_host_mtx_sparsity_pattern : 103 ms
[OGL LOG] sort_host_mtx : 70 ms
[OGL LOG] init_preconditioner : 0 ms
 CG create  precond 
[OGL LOG] solve : 260 ms
BJcudaGKOCG:  Solving for p, Initial residual = 0.21911, Final residual = 9.95138e-05, No Iterations 242
linear solve p 877943
time step continuity errors : sum local = 4.12882e-08, global = 3.15072e-21, cumulative = -8.29359e-20
ExecutionTime = 32.65 s  ClockTime = 33 s

Time = 0.009

Courant Number mean: 0.118147 max: 0.804085
DILUPBiCGStab:  Solving for Ux, Initial residual = 0.00804476, Final residual = 4.21633e-05, No Iterations 5
DILUPBiCGStab:  Solving for Uy, Initial residual = 0.0203962, Final residual = 6.9155e-05, No Iterations 5
DILUPBiCGStab:  Solving for Uz, Initial residual = 0.0550452, Final residual = 0.000392929, No Iterations 5
linear solve U 471951
[OGL LOG] init_host_sparsity_pattern : 269 ms
[OGL LOG] matrix not stored update host matrix
[OGL LOG] update_host_mtx : 139 ms
[OGL LOG] matrix is not yet sorted, sorting host matrix
[OGL LOG] sort_host_mtx_sparsity_pattern : 109 ms
[OGL LOG] sort_host_mtx : 64 ms
[OGL LOG] init_preconditioner : 0 ms
 CG create  precond 
[OGL LOG] solve : 256 ms
BJcudaGKOCG:  Solving for p, Initial residual = 0.208497, Final residual = 9.71513e-05, No Iterations 238
linear solve p 873849
time step continuity errors : sum local = 3.89633e-08, global = -1.81068e-20, cumulative = -1.01043e-19
[OGL LOG] init_host_sparsity_pattern : 269 ms
[OGL LOG] matrix not stored update host matrix
[OGL LOG] update_host_mtx : 139 ms
[OGL LOG] matrix is not yet sorted, sorting host matrix
[OGL LOG] sort_host_mtx_sparsity_pattern : 104 ms
[OGL LOG] sort_host_mtx : 67 ms
[OGL LOG] init_preconditioner : 0 ms
 CG create  precond 
[OGL LOG] solve : 253 ms
BJcudaGKOCG:  Solving for p, Initial residual = 0.178109, Final residual = 9.72903e-05, No Iterations 236
linear solve p 869173
time step continuity errors : sum local = 3.69533e-08, global = 3.57822e-20, cumulative = -6.52605e-20
ExecutionTime = 35.13 s  ClockTime = 36 s

Time = 0.01

Courant Number mean: 0.122092 max: 0.806135
DILUPBiCGStab:  Solving for Ux, Initial residual = 0.0066341, Final residual = 3.18063e-05, No Iterations 5
DILUPBiCGStab:  Solving for Uy, Initial residual = 0.0177266, Final residual = 5.7591e-05, No Iterations 5
DILUPBiCGStab:  Solving for Uz, Initial residual = 0.0482307, Final residual = 0.000343122, No Iterations 5
linear solve U 472786
[OGL LOG] init_host_sparsity_pattern : 269 ms
[OGL LOG] matrix not stored update host matrix
[OGL LOG] update_host_mtx : 139 ms
[OGL LOG] matrix is not yet sorted, sorting host matrix
[OGL LOG] sort_host_mtx_sparsity_pattern : 108 ms
[OGL LOG] sort_host_mtx : 65 ms
[OGL LOG] init_preconditioner : 0 ms
 CG create  precond 
[OGL LOG] solve : 522 ms
BJcudaGKOCG:  Solving for p, Initial residual = 0.156348, Final residual = 9.36695e-05, No Iterations 493
linear solve p 1139468
time step continuity errors : sum local = 3.39969e-08, global = -2.60102e-20, cumulative = -9.12707e-20
[OGL LOG] init_host_sparsity_pattern : 269 ms
[OGL LOG] matrix not stored update host matrix
[OGL LOG] update_host_mtx : 139 ms
[OGL LOG] matrix is not yet sorted, sorting host matrix
[OGL LOG] sort_host_mtx_sparsity_pattern : 107 ms
[OGL LOG] sort_host_mtx : 67 ms
[OGL LOG] init_preconditioner : 0 ms
 CG create  precond 
[OGL LOG] solve : 517 ms
BJcudaGKOCG:  Solving for p, Initial residual = 0.132623, Final residual = 9.89551e-05, No Iterations 490
linear solve p 1135440
time step continuity errors : sum local = 3.58424e-08, global = -1.01479e-20, cumulative = -1.01419e-19
ExecutionTime = 38.15 s  ClockTime = 39 s

End

