/*---------------------------------------------------------------------------*\
  =========                 |
  \\      /  F ield         | OpenFOAM: The Open Source CFD Toolbox
   \\    /   O peration     | Website:  https://openfoam.org
    \\  /    A nd           | Version:  8
     \\/     M anipulation  |
\*---------------------------------------------------------------------------*/
Build  : 8-ef60d22ea792
Exec   : icoFoam
Date   : Jul 29 2021
Time   : 03:16:13
Host   : "uc2n489.localdomain"
PID    : 3419398
I/O    : uncollated
Case   : /pfs/data5/home/kit/scc/nq7776/code/OBR/lidDrivenCavity3D/Variation_mesh/30/Variation_matrix_solver/BiCGStab_NoPrecond_CUDA/base
nProcs : 1
sigFpe : Enabling floating point exception trapping (FOAM_SIGFPE).
fileModificationChecking : Monitoring run-time modified files using timeStampMaster (fileModificationSkew 10)
allowSystemOperations : Allowing user-supplied system call operations

// * * * * * * * * * * * * * * * * * * * * * * * * * * * * * * * * * * * * * //
Create time

Create mesh for time = 0

Reading transportProperties

Reading field p

Reading field U

Reading/calculating face flux field phi


Starting time loop

Time = 0.001

Courant Number mean: 0 max: 0
DILUPBiCGStab:  Solving for Ux, Initial residual = 1, Final residual = 2.30612e-07, No Iterations 5
DILUPBiCGStab:  Solving for Uy:  solution singularity
DILUPBiCGStab:  Solving for Uz:  solution singularity
linear solve U 9957
[OGL LOG] init_host_sparsity_pattern : 7 ms
[OGL LOG] matrix not stored update host matrix
[OGL LOG] update_host_mtx : 3 ms
[OGL LOG] matrix is not yet sorted, compute sorting idxs
[OGL LOG] compute_sort : 190 ms
[OGL LOG] matrix is not yet sorted, sorting host matrix
[OGL LOG] sort_host_mtx_sparsity_pattern : 4 ms
[OGL LOG] sort_host_mtx : 2 ms
[OGL LOG] init_preconditioner : 0 ms
[OGL LOG] solve : 54 ms
nonecudaGKOBiCGStab:  Solving for p, Initial residual = 1, Final residual = 9.3637e-05, No Iterations 189
linear solve p 999913
time step continuity errors : sum local = 1.00655e-07, global = 3.38689e-21, cumulative = 3.38689e-21
[OGL LOG] init_host_sparsity_pattern : 7 ms
[OGL LOG] matrix not stored update host matrix
[OGL LOG] update_host_mtx : 3 ms
[OGL LOG] matrix is not yet sorted, sorting host matrix
[OGL LOG] sort_host_mtx_sparsity_pattern : 4 ms
[OGL LOG] sort_host_mtx : 2 ms
[OGL LOG] init_preconditioner : 0 ms
[OGL LOG] solve : 51 ms
nonecudaGKOBiCGStab:  Solving for p, Initial residual = 0.53394, Final residual = 5.24694e-05, No Iterations 178
linear solve p 71681
time step continuity errors : sum local = 8.80874e-08, global = 8.43331e-21, cumulative = 1.18202e-20
ExecutionTime = 1.22 s  ClockTime = 1 s

Time = 0.002

Courant Number mean: 0.0151363 max: 0.148265
DILUPBiCGStab:  Solving for Ux, Initial residual = 0.196125, Final residual = 3.64368e-08, No Iterations 5
DILUPBiCGStab:  Solving for Uy, Initial residual = 0.280229, Final residual = 4.07991e-08, No Iterations 5
DILUPBiCGStab:  Solving for Uz, Initial residual = 0.919911, Final residual = 1.57797e-07, No Iterations 5
linear solve U 17658
[OGL LOG] init_host_sparsity_pattern : 6 ms
[OGL LOG] matrix not stored update host matrix
[OGL LOG] update_host_mtx : 3 ms
[OGL LOG] matrix is not yet sorted, sorting host matrix
[OGL LOG] sort_host_mtx_sparsity_pattern : 4 ms
[OGL LOG] sort_host_mtx : 2 ms
[OGL LOG] init_preconditioner : 0 ms
[OGL LOG] solve : 55 ms
nonecudaGKOBiCGStab:  Solving for p, Initial residual = 0.352787, Final residual = 7.50478e-05, No Iterations 178
linear solve p 75323
time step continuity errors : sum local = 1.17565e-07, global = 1.69973e-20, cumulative = 2.88175e-20
[OGL LOG] init_host_sparsity_pattern : 7 ms
[OGL LOG] matrix not stored update host matrix
[OGL LOG] update_host_mtx : 3 ms
[OGL LOG] matrix is not yet sorted, sorting host matrix
[OGL LOG] sort_host_mtx_sparsity_pattern : 5 ms
[OGL LOG] sort_host_mtx : 2 ms
[OGL LOG] init_preconditioner : 0 ms
[OGL LOG] solve : 49 ms
nonecudaGKOBiCGStab:  Solving for p, Initial residual = 0.253879, Final residual = 9.47934e-05, No Iterations 173
linear solve p 70422
time step continuity errors : sum local = 1.56935e-07, global = -1.88463e-21, cumulative = 2.69329e-20
ExecutionTime = 1.39 s  ClockTime = 1 s

Time = 0.003

Courant Number mean: 0.0235105 max: 0.204199
DILUPBiCGStab:  Solving for Ux, Initial residual = 0.0795151, Final residual = 1.29892e-08, No Iterations 5
DILUPBiCGStab:  Solving for Uy, Initial residual = 0.116494, Final residual = 1.13636e-08, No Iterations 5
DILUPBiCGStab:  Solving for Uz, Initial residual = 0.219257, Final residual = 4.27376e-08, No Iterations 5
linear solve U 17750
[OGL LOG] init_host_sparsity_pattern : 6 ms
[OGL LOG] matrix not stored update host matrix
[OGL LOG] update_host_mtx : 3 ms
[OGL LOG] matrix is not yet sorted, sorting host matrix
[OGL LOG] sort_host_mtx_sparsity_pattern : 4 ms
[OGL LOG] sort_host_mtx : 2 ms
[OGL LOG] init_preconditioner : 0 ms
[OGL LOG] solve : 24 ms
nonecudaGKOBiCGStab:  Solving for p, Initial residual = 0.113308, Final residual = 9.86262e-05, No Iterations 83
linear solve p 44600
time step continuity errors : sum local = 1.35562e-07, global = -5.9923e-21, cumulative = 2.09406e-20
[OGL LOG] init_host_sparsity_pattern : 6 ms
[OGL LOG] matrix not stored update host matrix
[OGL LOG] update_host_mtx : 3 ms
[OGL LOG] matrix is not yet sorted, sorting host matrix
[OGL LOG] sort_host_mtx_sparsity_pattern : 4 ms
[OGL LOG] sort_host_mtx : 2 ms
[OGL LOG] init_preconditioner : 0 ms
[OGL LOG] solve : 45 ms
nonecudaGKOBiCGStab:  Solving for p, Initial residual = 0.0838323, Final residual = 9.74502e-05, No Iterations 156
linear solve p 65555
time step continuity errors : sum local = 1.45134e-07, global = 7.56726e-21, cumulative = 2.85078e-20
ExecutionTime = 1.53 s  ClockTime = 1 s

Time = 0.004

Courant Number mean: 0.028642 max: 0.226395
DILUPBiCGStab:  Solving for Ux, Initial residual = 0.0460366, Final residual = 6.36374e-09, No Iterations 5
DILUPBiCGStab:  Solving for Uy, Initial residual = 0.0700082, Final residual = 4.33244e-09, No Iterations 5
DILUPBiCGStab:  Solving for Uz, Initial residual = 0.110777, Final residual = 1.39293e-08, No Iterations 5
linear solve U 17601
[OGL LOG] init_host_sparsity_pattern : 6 ms
[OGL LOG] matrix not stored update host matrix
[OGL LOG] update_host_mtx : 3 ms
[OGL LOG] matrix is not yet sorted, sorting host matrix
[OGL LOG] sort_host_mtx_sparsity_pattern : 4 ms
[OGL LOG] sort_host_mtx : 2 ms
[OGL LOG] init_preconditioner : 0 ms
[OGL LOG] solve : 18 ms
nonecudaGKOBiCGStab:  Solving for p, Initial residual = 0.0571714, Final residual = 9.49712e-05, No Iterations 63
linear solve p 38984
time step continuity errors : sum local = 8.27076e-08, global = 9.03643e-22, cumulative = 2.94115e-20
[OGL LOG] init_host_sparsity_pattern : 7 ms
[OGL LOG] matrix not stored update host matrix
[OGL LOG] update_host_mtx : 3 ms
[OGL LOG] matrix is not yet sorted, sorting host matrix
[OGL LOG] sort_host_mtx_sparsity_pattern : 4 ms
[OGL LOG] sort_host_mtx : 2 ms
[OGL LOG] init_preconditioner : 0 ms
[OGL LOG] solve : 19 ms
nonecudaGKOBiCGStab:  Solving for p, Initial residual = 0.0420628, Final residual = 8.92264e-05, No Iterations 64
linear solve p 39348
time step continuity errors : sum local = 1.14908e-07, global = 9.36627e-22, cumulative = 3.03481e-20
ExecutionTime = 1.64 s  ClockTime = 1 s

Time = 0.005

Courant Number mean: 0.0323424 max: 0.237404
DILUPBiCGStab:  Solving for Ux, Initial residual = 0.0313792, Final residual = 2.99542e-09, No Iterations 5
DILUPBiCGStab:  Solving for Uy, Initial residual = 0.0483126, Final residual = 2.41946e-09, No Iterations 5
DILUPBiCGStab:  Solving for Uz, Initial residual = 0.0806347, Final residual = 8.11491e-09, No Iterations 5
linear solve U 17570
[OGL LOG] init_host_sparsity_pattern : 6 ms
[OGL LOG] matrix not stored update host matrix
[OGL LOG] update_host_mtx : 3 ms
[OGL LOG] matrix is not yet sorted, sorting host matrix
[OGL LOG] sort_host_mtx_sparsity_pattern : 4 ms
[OGL LOG] sort_host_mtx : 2 ms
[OGL LOG] init_preconditioner : 0 ms
[OGL LOG] solve : 18 ms
nonecudaGKOBiCGStab:  Solving for p, Initial residual = 0.0356686, Final residual = 8.9793e-05, No Iterations 63
linear solve p 39080
time step continuity errors : sum local = 9.69042e-08, global = 7.48138e-21, cumulative = 3.78295e-20
[OGL LOG] init_host_sparsity_pattern : 6 ms
[OGL LOG] matrix not stored update host matrix
[OGL LOG] update_host_mtx : 3 ms
[OGL LOG] matrix is not yet sorted, sorting host matrix
[OGL LOG] sort_host_mtx_sparsity_pattern : 4 ms
[OGL LOG] sort_host_mtx : 2 ms
[OGL LOG] init_preconditioner : 0 ms
[OGL LOG] solve : 20 ms
nonecudaGKOBiCGStab:  Solving for p, Initial residual = 0.0264126, Final residual = 9.68818e-05, No Iterations 57
linear solve p 40469
time step continuity errors : sum local = 1.16307e-07, global = 2.36108e-21, cumulative = 4.01906e-20
ExecutionTime = 1.75 s  ClockTime = 1 s

Time = 0.006

Courant Number mean: 0.0352084 max: 0.243905
DILUPBiCGStab:  Solving for Ux, Initial residual = 0.0234502, Final residual = 1.11668e-09, No Iterations 5
DILUPBiCGStab:  Solving for Uy, Initial residual = 0.0364819, Final residual = 1.59076e-09, No Iterations 5
DILUPBiCGStab:  Solving for Uz, Initial residual = 0.0637668, Final residual = 5.52805e-09, No Iterations 5
linear solve U 17543
[OGL LOG] init_host_sparsity_pattern : 6 ms
[OGL LOG] matrix not stored update host matrix
[OGL LOG] update_host_mtx : 3 ms
[OGL LOG] matrix is not yet sorted, sorting host matrix
[OGL LOG] sort_host_mtx_sparsity_pattern : 4 ms
[OGL LOG] sort_host_mtx : 2 ms
[OGL LOG] init_preconditioner : 0 ms
[OGL LOG] solve : 19 ms
nonecudaGKOBiCGStab:  Solving for p, Initial residual = 0.025335, Final residual = 9.06701e-05, No Iterations 65
linear solve p 39650
time step continuity errors : sum local = 9.46244e-08, global = 9.30144e-21, cumulative = 4.9492e-20
[OGL LOG] init_host_sparsity_pattern : 6 ms
[OGL LOG] matrix not stored update host matrix
[OGL LOG] update_host_mtx : 3 ms
[OGL LOG] matrix is not yet sorted, sorting host matrix
[OGL LOG] sort_host_mtx_sparsity_pattern : 4 ms
[OGL LOG] sort_host_mtx : 2 ms
[OGL LOG] init_preconditioner : 0 ms
[OGL LOG] solve : 17 ms
nonecudaGKOBiCGStab:  Solving for p, Initial residual = 0.0189054, Final residual = 8.8534e-05, No Iterations 58
linear solve p 37622
time step continuity errors : sum local = 1.0505e-07, global = 1.39818e-20, cumulative = 6.34739e-20
ExecutionTime = 1.86 s  ClockTime = 2 s

Time = 0.007

Courant Number mean: 0.0375049 max: 0.24826
DILUPBiCGStab:  Solving for Ux, Initial residual = 0.0185462, Final residual = 5.58123e-10, No Iterations 5
DILUPBiCGStab:  Solving for Uy, Initial residual = 0.0289592, Final residual = 1.14384e-09, No Iterations 5
DILUPBiCGStab:  Solving for Uz, Initial residual = 0.0523651, Final residual = 3.69503e-09, No Iterations 5
linear solve U 17401
[OGL LOG] init_host_sparsity_pattern : 6 ms
[OGL LOG] matrix not stored update host matrix
[OGL LOG] update_host_mtx : 3 ms
[OGL LOG] matrix is not yet sorted, sorting host matrix
[OGL LOG] sort_host_mtx_sparsity_pattern : 4 ms
[OGL LOG] sort_host_mtx : 2 ms
[OGL LOG] init_preconditioner : 0 ms
[OGL LOG] solve : 17 ms
nonecudaGKOBiCGStab:  Solving for p, Initial residual = 0.0197893, Final residual = 7.71892e-05, No Iterations 59
linear solve p 38181
time step continuity errors : sum local = 8.22547e-08, global = 1.67539e-20, cumulative = 8.02278e-20
[OGL LOG] init_host_sparsity_pattern : 6 ms
[OGL LOG] matrix not stored update host matrix
[OGL LOG] update_host_mtx : 3 ms
[OGL LOG] matrix is not yet sorted, sorting host matrix
[OGL LOG] sort_host_mtx_sparsity_pattern : 4 ms
[OGL LOG] sort_host_mtx : 2 ms
[OGL LOG] init_preconditioner : 0 ms
[OGL LOG] solve : 17 ms
nonecudaGKOBiCGStab:  Solving for p, Initial residual = 0.0148623, Final residual = 9.36749e-05, No Iterations 59
linear solve p 38053
time step continuity errors : sum local = 1.04007e-07, global = -1.03041e-20, cumulative = 6.99237e-20
ExecutionTime = 1.96 s  ClockTime = 2 s

Time = 0.008

Courant Number mean: 0.0393972 max: 0.251425
DILUPBiCGStab:  Solving for Ux, Initial residual = 0.0150763, Final residual = 3.46137e-10, No Iterations 5
DILUPBiCGStab:  Solving for Uy, Initial residual = 0.0239131, Final residual = 8.32365e-10, No Iterations 5
DILUPBiCGStab:  Solving for Uz, Initial residual = 0.0444555, Final residual = 2.37684e-09, No Iterations 5
linear solve U 17693
[OGL LOG] init_host_sparsity_pattern : 6 ms
[OGL LOG] matrix not stored update host matrix
[OGL LOG] update_host_mtx : 3 ms
[OGL LOG] matrix is not yet sorted, sorting host matrix
[OGL LOG] sort_host_mtx_sparsity_pattern : 4 ms
[OGL LOG] sort_host_mtx : 2 ms
[OGL LOG] init_preconditioner : 0 ms
[OGL LOG] solve : 19 ms
nonecudaGKOBiCGStab:  Solving for p, Initial residual = 0.0159425, Final residual = 6.53146e-05, No Iterations 64
linear solve p 39322
time step continuity errors : sum local = 7.50222e-08, global = 9.71948e-21, cumulative = 7.96432e-20
[OGL LOG] init_host_sparsity_pattern : 6 ms
[OGL LOG] matrix not stored update host matrix
[OGL LOG] update_host_mtx : 3 ms
[OGL LOG] matrix is not yet sorted, sorting host matrix
[OGL LOG] sort_host_mtx_sparsity_pattern : 4 ms
[OGL LOG] sort_host_mtx : 2 ms
[OGL LOG] init_preconditioner : 0 ms
[OGL LOG] solve : 17 ms
nonecudaGKOBiCGStab:  Solving for p, Initial residual = 0.0120505, Final residual = 9.14574e-05, No Iterations 57
linear solve p 37439
time step continuity errors : sum local = 9.98754e-08, global = -5.09719e-20, cumulative = 2.86713e-20
ExecutionTime = 2.07 s  ClockTime = 2 s

Time = 0.009

Courant Number mean: 0.0410392 max: 0.253855
DILUPBiCGStab:  Solving for Ux, Initial residual = 0.0126374, Final residual = 2.44987e-10, No Iterations 5
DILUPBiCGStab:  Solving for Uy, Initial residual = 0.0201378, Final residual = 6.24502e-10, No Iterations 5
DILUPBiCGStab:  Solving for Uz, Initial residual = 0.0379515, Final residual = 1.55762e-09, No Iterations 5
linear solve U 17674
[OGL LOG] init_host_sparsity_pattern : 6 ms
[OGL LOG] matrix not stored update host matrix
[OGL LOG] update_host_mtx : 3 ms
[OGL LOG] matrix is not yet sorted, sorting host matrix
[OGL LOG] sort_host_mtx_sparsity_pattern : 4 ms
[OGL LOG] sort_host_mtx : 2 ms
[OGL LOG] init_preconditioner : 0 ms
[OGL LOG] solve : 18 ms
nonecudaGKOBiCGStab:  Solving for p, Initial residual = 0.0130842, Final residual = 9.30328e-05, No Iterations 61
linear solve p 38556
time step continuity errors : sum local = 9.37061e-08, global = -3.61798e-20, cumulative = -7.50852e-21
[OGL LOG] init_host_sparsity_pattern : 7 ms
[OGL LOG] matrix not stored update host matrix
[OGL LOG] update_host_mtx : 3 ms
[OGL LOG] matrix is not yet sorted, sorting host matrix
[OGL LOG] sort_host_mtx_sparsity_pattern : 5 ms
[OGL LOG] sort_host_mtx : 2 ms
[OGL LOG] init_preconditioner : 0 ms
[OGL LOG] solve : 16 ms
nonecudaGKOBiCGStab:  Solving for p, Initial residual = 0.00994357, Final residual = 9.96678e-05, No Iterations 55
linear solve p 37800
time step continuity errors : sum local = 1.03276e-07, global = -3.10157e-21, cumulative = -1.06101e-20
ExecutionTime = 2.18 s  ClockTime = 2 s

Time = 0.01

Courant Number mean: 0.0424706 max: 0.255787
DILUPBiCGStab:  Solving for Ux, Initial residual = 0.0107625, Final residual = 1.86615e-10, No Iterations 5
DILUPBiCGStab:  Solving for Uy, Initial residual = 0.0172904, Final residual = 4.82055e-10, No Iterations 5
DILUPBiCGStab:  Solving for Uz, Initial residual = 0.0332391, Final residual = 1.08606e-09, No Iterations 5
linear solve U 17650
[OGL LOG] init_host_sparsity_pattern : 6 ms
[OGL LOG] matrix not stored update host matrix
[OGL LOG] update_host_mtx : 3 ms
[OGL LOG] matrix is not yet sorted, sorting host matrix
[OGL LOG] sort_host_mtx_sparsity_pattern : 4 ms
[OGL LOG] sort_host_mtx : 2 ms
[OGL LOG] init_preconditioner : 0 ms
[OGL LOG] solve : 18 ms
nonecudaGKOBiCGStab:  Solving for p, Initial residual = 0.0112876, Final residual = 8.88904e-05, No Iterations 63
linear solve p 39067
time step continuity errors : sum local = 8.96771e-08, global = 6.45718e-23, cumulative = -1.05455e-20
[OGL LOG] init_host_sparsity_pattern : 6 ms
[OGL LOG] matrix not stored update host matrix
[OGL LOG] update_host_mtx : 3 ms
[OGL LOG] matrix is not yet sorted, sorting host matrix
[OGL LOG] sort_host_mtx_sparsity_pattern : 4 ms
[OGL LOG] sort_host_mtx : 2 ms
[OGL LOG] init_preconditioner : 0 ms
[OGL LOG] solve : 16 ms
nonecudaGKOBiCGStab:  Solving for p, Initial residual = 0.00862565, Final residual = 9.59521e-05, No Iterations 54
linear solve p 36550
time step continuity errors : sum local = 9.809e-08, global = 2.43157e-20, cumulative = 1.37702e-20
ExecutionTime = 2.28 s  ClockTime = 2 s

End

