/*---------------------------------------------------------------------------*\
  =========                 |
  \\      /  F ield         | OpenFOAM: The Open Source CFD Toolbox
   \\    /   O peration     | Website:  https://openfoam.org
    \\  /    A nd           | Version:  8
     \\/     M anipulation  |
\*---------------------------------------------------------------------------*/
Build  : 8-40a5a48f630f
Exec   : icoFoam
Date   : Jul 28 2021
Time   : 12:25:09
Host   : "uc2n423.localdomain"
PID    : 1364100
I/O    : uncollated
Case   : /pfs/data5/home/kit/scc/nq7776/code/OBR/lidDrivenCavity3D/Variation_mesh/65/Variation_matrix_solver/BiCGStab_NoPrecond_OMP/base
nProcs : 1
sigFpe : Enabling floating point exception trapping (FOAM_SIGFPE).
fileModificationChecking : Monitoring run-time modified files using timeStampMaster (fileModificationSkew 10)
allowSystemOperations : Allowing user-supplied system call operations

// * * * * * * * * * * * * * * * * * * * * * * * * * * * * * * * * * * * * * //
Create time

Create mesh for time = 0

Reading transportProperties

Reading field p

Reading field U

Reading/calculating face flux field phi


Starting time loop

Time = 0.001

Courant Number mean: 0 max: 0
nonePBiCGStab:  Solving for Ux, Initial residual = 1, Final residual = 0.053017, No Iterations 5
nonePBiCGStab:  Solving for Uy, Initial residual = 0, Final residual = 0, No Iterations 0
nonePBiCGStab:  Solving for Uz, Initial residual = 0, Final residual = 0, No Iterations 0
linear solve U 69
[OGL LOG] init_host_sparsity_pattern : 78 ms
[OGL LOG] matrix not stored update host matrix
[OGL LOG] update_host_mtx : 40 ms
[OGL LOG] matrix is not yet sorted, compute sorting idxs
[OGL LOG] compute_sort : 2375 ms
[OGL LOG] matrix is not yet sorted, sorting host matrix
[OGL LOG] sort_host_mtx_sparsity_pattern : 56 ms
[OGL LOG] sort_host_mtx : 33 ms
[OGL LOG] init_preconditioner : 0 ms
[OGL LOG] solve : 3808 ms
noneompGKOBiCGStab:  Solving for p, Initial residual = 1, Final residual = 9.23015e-05, No Iterations 415
linear solve p 6451
time step continuity errors : sum local = 1.54945e-07, global = -1.26331e-21, cumulative = -1.26331e-21
[OGL LOG] init_host_sparsity_pattern : 75 ms
[OGL LOG] matrix not stored update host matrix
[OGL LOG] update_host_mtx : 40 ms
[OGL LOG] matrix is not yet sorted, sorting host matrix
[OGL LOG] sort_host_mtx_sparsity_pattern : 57 ms
[OGL LOG] sort_host_mtx : 27 ms
[OGL LOG] init_preconditioner : 0 ms
[OGL LOG] solve : 3683 ms
noneompGKOBiCGStab:  Solving for p, Initial residual = 0.674596, Final residual = 9.84261e-05, No Iterations 404
linear solve p 3922
time step continuity errors : sum local = 3.78711e-06, global = -7.62287e-21, cumulative = -8.88618e-21
ExecutionTime = 19.09 s  ClockTime = 12 s

Time = 0.002

Courant Number mean: 0.0326882 max: 0.468251
nonePBiCGStab:  Solving for Ux, Initial residual = 0.152177, Final residual = 0.0213431, No Iterations 5
nonePBiCGStab:  Solving for Uy, Initial residual = 0.364722, Final residual = 0.0487273, No Iterations 5
nonePBiCGStab:  Solving for Uz, Initial residual = 0.952867, Final residual = 0.169924, No Iterations 5
linear solve U 136
[OGL LOG] init_host_sparsity_pattern : 74 ms
[OGL LOG] matrix not stored update host matrix
[OGL LOG] update_host_mtx : 39 ms
[OGL LOG] matrix is not yet sorted, sorting host matrix
[OGL LOG] sort_host_mtx_sparsity_pattern : 57 ms
[OGL LOG] sort_host_mtx : 27 ms
[OGL LOG] init_preconditioner : 0 ms
[OGL LOG] solve : 3761 ms
noneompGKOBiCGStab:  Solving for p, Initial residual = 0.655375, Final residual = 9.70424e-05, No Iterations 402
linear solve p 3997
time step continuity errors : sum local = 2.65871e-06, global = 1.35998e-20, cumulative = 4.7136e-21
[OGL LOG] init_host_sparsity_pattern : 78 ms
[OGL LOG] matrix not stored update host matrix
[OGL LOG] update_host_mtx : 40 ms
[OGL LOG] matrix is not yet sorted, sorting host matrix
[OGL LOG] sort_host_mtx_sparsity_pattern : 57 ms
[OGL LOG] sort_host_mtx : 27 ms
[OGL LOG] init_preconditioner : 0 ms
[OGL LOG] solve : 3614 ms
noneompGKOBiCGStab:  Solving for p, Initial residual = 0.572645, Final residual = 9.97269e-05, No Iterations 385
linear solve p 3856
time step continuity errors : sum local = 2.22186e-07, global = -5.8448e-21, cumulative = -1.1312e-21
ExecutionTime = 34.61 s  ClockTime = 20 s

Time = 0.003

Courant Number mean: 0.0501607 max: 0.556463
nonePBiCGStab:  Solving for Ux, Initial residual = 0.055032, Final residual = 0.00591465, No Iterations 5
nonePBiCGStab:  Solving for Uy, Initial residual = 0.128428, Final residual = 0.0173788, No Iterations 5
nonePBiCGStab:  Solving for Uz, Initial residual = 0.47529, Final residual = 0.105224, No Iterations 5
linear solve U 136
[OGL LOG] init_host_sparsity_pattern : 75 ms
[OGL LOG] matrix not stored update host matrix
[OGL LOG] update_host_mtx : 40 ms
[OGL LOG] matrix is not yet sorted, sorting host matrix
[OGL LOG] sort_host_mtx_sparsity_pattern : 56 ms
[OGL LOG] sort_host_mtx : 27 ms
[OGL LOG] init_preconditioner : 0 ms
[OGL LOG] solve : 3298 ms
noneompGKOBiCGStab:  Solving for p, Initial residual = 0.561686, Final residual = 9.79502e-05, No Iterations 352
linear solve p 3529
time step continuity errors : sum local = 9.58402e-08, global = -4.17755e-21, cumulative = -5.30875e-21
[OGL LOG] init_host_sparsity_pattern : 73 ms
[OGL LOG] matrix not stored update host matrix
[OGL LOG] update_host_mtx : 35 ms
[OGL LOG] matrix is not yet sorted, sorting host matrix
[OGL LOG] sort_host_mtx_sparsity_pattern : 55 ms
[OGL LOG] sort_host_mtx : 27 ms
[OGL LOG] init_preconditioner : 0 ms
[OGL LOG] solve : 3612 ms
noneompGKOBiCGStab:  Solving for p, Initial residual = 0.494811, Final residual = 9.00666e-05, No Iterations 384
linear solve p 3836
time step continuity errors : sum local = 1.15261e-07, global = -7.06285e-21, cumulative = -1.23716e-20
ExecutionTime = 49.15 s  ClockTime = 28 s

Time = 0.004

Courant Number mean: 0.0602115 max: 0.574989
nonePBiCGStab:  Solving for Ux, Initial residual = 0.0336279, Final residual = 0.00308137, No Iterations 5
nonePBiCGStab:  Solving for Uy, Initial residual = 0.0814096, Final residual = 0.00721236, No Iterations 5
nonePBiCGStab:  Solving for Uz, Initial residual = 0.266142, Final residual = 0.0339106, No Iterations 5
linear solve U 149
[OGL LOG] init_host_sparsity_pattern : 75 ms
[OGL LOG] matrix not stored update host matrix
[OGL LOG] update_host_mtx : 40 ms
[OGL LOG] matrix is not yet sorted, sorting host matrix
[OGL LOG] sort_host_mtx_sparsity_pattern : 57 ms
[OGL LOG] sort_host_mtx : 27 ms
[OGL LOG] init_preconditioner : 0 ms
[OGL LOG] solve : 3506 ms
noneompGKOBiCGStab:  Solving for p, Initial residual = 0.357808, Final residual = 9.43021e-05, No Iterations 374
linear solve p 3743
time step continuity errors : sum local = 7.58512e-08, global = 5.73441e-21, cumulative = -6.6372e-21
[OGL LOG] init_host_sparsity_pattern : 72 ms
[OGL LOG] matrix not stored update host matrix
[OGL LOG] update_host_mtx : 35 ms
[OGL LOG] matrix is not yet sorted, sorting host matrix
[OGL LOG] sort_host_mtx_sparsity_pattern : 55 ms
[OGL LOG] sort_host_mtx : 27 ms
[OGL LOG] init_preconditioner : 0 ms
[OGL LOG] solve : 3317 ms
noneompGKOBiCGStab:  Solving for p, Initial residual = 0.29573, Final residual = 5.82319e-05, No Iterations 360
linear solve p 3541
time step continuity errors : sum local = 6.92e-07, global = 8.79756e-21, cumulative = 2.16036e-21
ExecutionTime = 63.57 s  ClockTime = 35 s

Time = 0.005

Courant Number mean: 0.068196 max: 0.585621
nonePBiCGStab:  Solving for Ux, Initial residual = 0.023629, Final residual = 0.00197972, No Iterations 5
nonePBiCGStab:  Solving for Uy, Initial residual = 0.0536942, Final residual = 0.00429905, No Iterations 5
nonePBiCGStab:  Solving for Uz, Initial residual = 0.132024, Final residual = 0.0241298, No Iterations 5
linear solve U 137
[OGL LOG] init_host_sparsity_pattern : 74 ms
[OGL LOG] matrix not stored update host matrix
[OGL LOG] update_host_mtx : 40 ms
[OGL LOG] matrix is not yet sorted, sorting host matrix
[OGL LOG] sort_host_mtx_sparsity_pattern : 58 ms
[OGL LOG] sort_host_mtx : 27 ms
[OGL LOG] init_preconditioner : 0 ms
[OGL LOG] solve : 3404 ms
noneompGKOBiCGStab:  Solving for p, Initial residual = 0.278522, Final residual = 9.92811e-05, No Iterations 363
linear solve p 3640
time step continuity errors : sum local = 7.66948e-08, global = -6.22973e-21, cumulative = -4.06937e-21
[OGL LOG] init_host_sparsity_pattern : 72 ms
[OGL LOG] matrix not stored update host matrix
[OGL LOG] update_host_mtx : 35 ms
[OGL LOG] matrix is not yet sorted, sorting host matrix
[OGL LOG] sort_host_mtx_sparsity_pattern : 56 ms
[OGL LOG] sort_host_mtx : 27 ms
[OGL LOG] init_preconditioner : 0 ms
[OGL LOG] solve : 3137 ms
noneompGKOBiCGStab:  Solving for p, Initial residual = 0.235881, Final residual = 9.7186e-05, No Iterations 335
linear solve p 3360
time step continuity errors : sum local = 6.49636e-08, global = 1.09307e-21, cumulative = -2.97629e-21
ExecutionTime = 77.4 s  ClockTime = 43 s

Time = 0.006

Courant Number mean: 0.0744703 max: 0.592156
nonePBiCGStab:  Solving for Ux, Initial residual = 0.0178174, Final residual = 0.00115292, No Iterations 5
nonePBiCGStab:  Solving for Uy, Initial residual = 0.0399166, Final residual = 0.00207485, No Iterations 5
nonePBiCGStab:  Solving for Uz, Initial residual = 0.103905, Final residual = 0.0165549, No Iterations 5
linear solve U 137
[OGL LOG] init_host_sparsity_pattern : 75 ms
[OGL LOG] matrix not stored update host matrix
[OGL LOG] update_host_mtx : 40 ms
[OGL LOG] matrix is not yet sorted, sorting host matrix
[OGL LOG] sort_host_mtx_sparsity_pattern : 56 ms
[OGL LOG] sort_host_mtx : 28 ms
[OGL LOG] init_preconditioner : 0 ms
[OGL LOG] solve : 3353 ms
noneompGKOBiCGStab:  Solving for p, Initial residual = 0.185472, Final residual = 9.80003e-05, No Iterations 358
linear solve p 3585
time step continuity errors : sum local = 7.60966e-08, global = 9.50948e-22, cumulative = -2.02534e-21
[OGL LOG] init_host_sparsity_pattern : 72 ms
[OGL LOG] matrix not stored update host matrix
[OGL LOG] update_host_mtx : 37 ms
[OGL LOG] matrix is not yet sorted, sorting host matrix
[OGL LOG] sort_host_mtx_sparsity_pattern : 56 ms
[OGL LOG] sort_host_mtx : 27 ms
[OGL LOG] init_preconditioner : 0 ms
[OGL LOG] solve : 3530 ms
noneompGKOBiCGStab:  Solving for p, Initial residual = 0.153844, Final residual = 9.69545e-05, No Iterations 376
linear solve p 3757
time step continuity errors : sum local = 8.09667e-08, global = 3.56475e-21, cumulative = 1.5394e-21
ExecutionTime = 91.9 s  ClockTime = 50 s

Time = 0.007

Courant Number mean: 0.0796847 max: 0.596652
nonePBiCGStab:  Solving for Ux, Initial residual = 0.0139935, Final residual = 0.000867244, No Iterations 5
nonePBiCGStab:  Solving for Uy, Initial residual = 0.0317649, Final residual = 0.00150408, No Iterations 5
nonePBiCGStab:  Solving for Uz, Initial residual = 0.0866129, Final residual = 0.00959202, No Iterations 5
linear solve U 135
[OGL LOG] init_host_sparsity_pattern : 75 ms
[OGL LOG] matrix not stored update host matrix
[OGL LOG] update_host_mtx : 40 ms
[OGL LOG] matrix is not yet sorted, sorting host matrix
[OGL LOG] sort_host_mtx_sparsity_pattern : 56 ms
[OGL LOG] sort_host_mtx : 27 ms
[OGL LOG] init_preconditioner : 0 ms
[OGL LOG] solve : 2758 ms
noneompGKOBiCGStab:  Solving for p, Initial residual = 0.137984, Final residual = 2.02012e-05, No Iterations 294
linear solve p 2989
time step continuity errors : sum local = 1.41135e-06, global = -2.0553e-20, cumulative = -1.90136e-20
[OGL LOG] init_host_sparsity_pattern : 72 ms
[OGL LOG] matrix not stored update host matrix
[OGL LOG] update_host_mtx : 37 ms
[OGL LOG] matrix is not yet sorted, sorting host matrix
[OGL LOG] sort_host_mtx_sparsity_pattern : 56 ms
[OGL LOG] sort_host_mtx : 27 ms
[OGL LOG] init_preconditioner : 0 ms
[OGL LOG] solve : 1425 ms
noneompGKOBiCGStab:  Solving for p, Initial residual = 0.118254, Final residual = 9.72354e-05, No Iterations 152
linear solve p 1652
time step continuity errors : sum local = 4.5159e-08, global = -8.99699e-21, cumulative = -2.80106e-20
ExecutionTime = 101.01 s  ClockTime = 55 s

Time = 0.008

Courant Number mean: 0.0840635 max: 0.600067
nonePBiCGStab:  Solving for Ux, Initial residual = 0.011584, Final residual = 0.000886516, No Iterations 5
nonePBiCGStab:  Solving for Uy, Initial residual = 0.0255436, Final residual = 0.00148499, No Iterations 5
nonePBiCGStab:  Solving for Uz, Initial residual = 0.0773068, Final residual = 0.0156186, No Iterations 5
linear solve U 135
[OGL LOG] init_host_sparsity_pattern : 73 ms
[OGL LOG] matrix not stored update host matrix
[OGL LOG] update_host_mtx : 40 ms
[OGL LOG] matrix is not yet sorted, sorting host matrix
[OGL LOG] sort_host_mtx_sparsity_pattern : 55 ms
[OGL LOG] sort_host_mtx : 27 ms
[OGL LOG] init_preconditioner : 0 ms
[OGL LOG] solve : 2927 ms
noneompGKOBiCGStab:  Solving for p, Initial residual = 0.112986, Final residual = 9.90431e-05, No Iterations 312
linear solve p 3155
time step continuity errors : sum local = 1.88543e-07, global = -8.48127e-21, cumulative = -3.64919e-20
[OGL LOG] init_host_sparsity_pattern : 72 ms
[OGL LOG] matrix not stored update host matrix
[OGL LOG] update_host_mtx : 35 ms
[OGL LOG] matrix is not yet sorted, sorting host matrix
[OGL LOG] sort_host_mtx_sparsity_pattern : 55 ms
[OGL LOG] sort_host_mtx : 27 ms
[OGL LOG] init_preconditioner : 0 ms
[OGL LOG] solve : 3150 ms
noneompGKOBiCGStab:  Solving for p, Initial residual = 0.0954596, Final residual = 8.00277e-05, No Iterations 336
linear solve p 3374
time step continuity errors : sum local = 6.01531e-08, global = 3.44903e-21, cumulative = -3.30428e-20
ExecutionTime = 113.87 s  ClockTime = 62 s

Time = 0.009

Courant Number mean: 0.0878085 max: 0.602635
nonePBiCGStab:  Solving for Ux, Initial residual = 0.00960763, Final residual = 0.000574334, No Iterations 5
nonePBiCGStab:  Solving for Uy, Initial residual = 0.0221205, Final residual = 0.00111757, No Iterations 5
nonePBiCGStab:  Solving for Uz, Initial residual = 0.0718058, Final residual = 0.0121247, No Iterations 5
linear solve U 135
[OGL LOG] init_host_sparsity_pattern : 72 ms
[OGL LOG] matrix not stored update host matrix
[OGL LOG] update_host_mtx : 35 ms
[OGL LOG] matrix is not yet sorted, sorting host matrix
[OGL LOG] sort_host_mtx_sparsity_pattern : 56 ms
[OGL LOG] sort_host_mtx : 27 ms
[OGL LOG] init_preconditioner : 0 ms
[OGL LOG] solve : 3463 ms
noneompGKOBiCGStab:  Solving for p, Initial residual = 0.0922807, Final residual = 9.83589e-05, No Iterations 369
linear solve p 3686
time step continuity errors : sum local = 4.44959e-08, global = 1.12521e-20, cumulative = -2.17908e-20
[OGL LOG] init_host_sparsity_pattern : 72 ms
[OGL LOG] matrix not stored update host matrix
[OGL LOG] update_host_mtx : 35 ms
[OGL LOG] matrix is not yet sorted, sorting host matrix
[OGL LOG] sort_host_mtx_sparsity_pattern : 56 ms
[OGL LOG] sort_host_mtx : 27 ms
[OGL LOG] init_preconditioner : 0 ms
[OGL LOG] solve : 2801 ms
noneompGKOBiCGStab:  Solving for p, Initial residual = 0.0774281, Final residual = 8.47648e-05, No Iterations 298
linear solve p 3024
time step continuity errors : sum local = 5.62896e-07, global = 2.01337e-20, cumulative = -1.65701e-21
ExecutionTime = 127.12 s  ClockTime = 69 s

Time = 0.01

Courant Number mean: 0.091063 max: 0.604753
nonePBiCGStab:  Solving for Ux, Initial residual = 0.00842618, Final residual = 0.000568225, No Iterations 5
nonePBiCGStab:  Solving for Uy, Initial residual = 0.0184211, Final residual = 0.00101713, No Iterations 5
nonePBiCGStab:  Solving for Uz, Initial residual = 0.0629784, Final residual = 0.0130271, No Iterations 5
linear solve U 135
[OGL LOG] init_host_sparsity_pattern : 72 ms
[OGL LOG] matrix not stored update host matrix
[OGL LOG] update_host_mtx : 37 ms
[OGL LOG] matrix is not yet sorted, sorting host matrix
[OGL LOG] sort_host_mtx_sparsity_pattern : 56 ms
[OGL LOG] sort_host_mtx : 27 ms
[OGL LOG] init_preconditioner : 0 ms
[OGL LOG] solve : 3442 ms
noneompGKOBiCGStab:  Solving for p, Initial residual = 0.0807876, Final residual = 4.60311e-05, No Iterations 368
linear solve p 3669
time step continuity errors : sum local = 2.07275e-08, global = 5.13228e-21, cumulative = 3.47527e-21
[OGL LOG] init_host_sparsity_pattern : 75 ms
[OGL LOG] matrix not stored update host matrix
[OGL LOG] update_host_mtx : 40 ms
[OGL LOG] matrix is not yet sorted, sorting host matrix
[OGL LOG] sort_host_mtx_sparsity_pattern : 56 ms
[OGL LOG] sort_host_mtx : 27 ms
[OGL LOG] init_preconditioner : 0 ms
[OGL LOG] solve : 2883 ms
noneompGKOBiCGStab:  Solving for p, Initial residual = 0.0677862, Final residual = 9.96553e-05, No Iterations 308
linear solve p 3115
time step continuity errors : sum local = 8.05608e-08, global = 4.0883e-21, cumulative = 7.56358e-21
ExecutionTime = 140.5 s  ClockTime = 76 s

End

