/*---------------------------------------------------------------------------*\
  =========                 |
  \\      /  F ield         | OpenFOAM: The Open Source CFD Toolbox
   \\    /   O peration     | Website:  https://openfoam.org
    \\  /    A nd           | Version:  8
     \\/     M anipulation  |
\*---------------------------------------------------------------------------*/
Build  : 8-ef60d22ea792
Exec   : icoFoam
Date   : Jul 28 2021
Time   : 14:53:59
Host   : "nla-gpu2.ianm.kit.edu"
PID    : 1497816
I/O    : uncollated
Case   : /home/greole/code/OBR/lidDrivenCavity3D/Variation_mesh/85/Variation_matrix_solver/BiCGStab_BJ_HIP/base
nProcs : 1
sigFpe : Enabling floating point exception trapping (FOAM_SIGFPE).
fileModificationChecking : Monitoring run-time modified files using timeStampMaster (fileModificationSkew 10)
allowSystemOperations : Allowing user-supplied system call operations

// * * * * * * * * * * * * * * * * * * * * * * * * * * * * * * * * * * * * * //
Create time

Create mesh for time = 0

Reading transportProperties

Reading field p

Reading field U

Reading/calculating face flux field phi


Starting time loop

Time = 0.001

Courant Number mean: 0 max: 0
DILUPBiCGStab:  Solving for Ux, Initial residual = 1, Final residual = 0.00382019, No Iterations 5
DILUPBiCGStab:  Solving for Uy:  solution singularity
DILUPBiCGStab:  Solving for Uz:  solution singularity
linear solve U 250425
[OGL LOG] init_host_sparsity_pattern : 284 ms
[OGL LOG] matrix not stored update host matrix
[OGL LOG] update_host_mtx : 143 ms
[OGL LOG] matrix is not yet sorted, compute sorting idxs
[OGL LOG] compute_sort : 6145 ms
[OGL LOG] matrix is not yet sorted, sorting host matrix
[OGL LOG] sort_host_mtx_sparsity_pattern : 121 ms
[OGL LOG] sort_host_mtx : 73 ms
[OGL LOG] init_preconditioner : 447 ms
[OGL LOG] solve : 533 ms
BJhipGKOBiCGStab:  Solving for p, Initial residual = 1, Final residual = 6.25071e-05, No Iterations 455
linear solve p 8221947
time step continuity errors : sum local = 1.02255, global = -1.74492e-16, cumulative = -1.74492e-16
[OGL LOG] init_host_sparsity_pattern : 260 ms
[OGL LOG] matrix not stored update host matrix
[OGL LOG] update_host_mtx : 126 ms
[OGL LOG] matrix is not yet sorted, sorting host matrix
[OGL LOG] sort_host_mtx_sparsity_pattern : 109 ms
[OGL LOG] sort_host_mtx : 66 ms
[OGL LOG] init_preconditioner : 0 ms
[OGL LOG] solve : 125 ms
BJhipGKOBiCGStab:  Solving for p, Initial residual = 0.987646, Final residual = 6.99891e-05, No Iterations 113
linear solve p 713423
time step continuity errors : sum local = 0.0150768, global = -8.41666e-19, cumulative = -1.75334e-16
ExecutionTime = 12.7 s  ClockTime = 12 s

Time = 0.002

Courant Number mean: 0.0814363 max: 1.42106
DILUPBiCGStab:  Solving for Ux, Initial residual = 0.280092, Final residual = 0.00233368, No Iterations 5
DILUPBiCGStab:  Solving for Uy, Initial residual = 0.78233, Final residual = 0.00226263, No Iterations 5
DILUPBiCGStab:  Solving for Uz, Initial residual = 0.878103, Final residual = 0.00400053, No Iterations 5
linear solve U 486671
[OGL LOG] init_host_sparsity_pattern : 259 ms
[OGL LOG] matrix not stored update host matrix
[OGL LOG] update_host_mtx : 126 ms
[OGL LOG] matrix is not yet sorted, sorting host matrix
[OGL LOG] sort_host_mtx_sparsity_pattern : 112 ms
[OGL LOG] sort_host_mtx : 69 ms
[OGL LOG] init_preconditioner : 0 ms
[OGL LOG] solve : 145 ms
BJhipGKOBiCGStab:  Solving for p, Initial residual = 0.953855, Final residual = 9.66986e-05, No Iterations 135
linear solve p 738829
time step continuity errors : sum local = 0.000123597, global = 8.20729e-20, cumulative = -1.75252e-16
[OGL LOG] init_host_sparsity_pattern : 258 ms
[OGL LOG] matrix not stored update host matrix
[OGL LOG] update_host_mtx : 126 ms
[OGL LOG] matrix is not yet sorted, sorting host matrix
[OGL LOG] sort_host_mtx_sparsity_pattern : 104 ms
[OGL LOG] sort_host_mtx : 67 ms
[OGL LOG] init_preconditioner : 0 ms
[OGL LOG] solve : 169 ms
BJhipGKOBiCGStab:  Solving for p, Initial residual = 0.790303, Final residual = 9.95451e-05, No Iterations 156
linear solve p 751417
time step continuity errors : sum local = 0.000152385, global = 5.00225e-20, cumulative = -1.75202e-16
ExecutionTime = 15.19 s  ClockTime = 15 s

Time = 0.003

Courant Number mean: 0.270297 max: 3.15524
DILUPBiCGStab:  Solving for Ux, Initial residual = 0.39744, Final residual = 0.00313929, No Iterations 5
DILUPBiCGStab:  Solving for Uy, Initial residual = 0.848524, Final residual = 0.00365682, No Iterations 5
DILUPBiCGStab:  Solving for Uz, Initial residual = 0.903809, Final residual = 0.00372346, No Iterations 5
linear solve U 488388
[OGL LOG] init_host_sparsity_pattern : 259 ms
[OGL LOG] matrix not stored update host matrix
[OGL LOG] update_host_mtx : 127 ms
[OGL LOG] matrix is not yet sorted, sorting host matrix
[OGL LOG] sort_host_mtx_sparsity_pattern : 115 ms
[OGL LOG] sort_host_mtx : 68 ms
[OGL LOG] init_preconditioner : 0 ms
[OGL LOG] solve : 366 ms
BJhipGKOBiCGStab:  Solving for p, Initial residual = 0.972779, Final residual = 9.56618e-05, No Iterations 346
linear solve p 963301
time step continuity errors : sum local = 0.0311644, global = -7.14999e-19, cumulative = -1.75917e-16
[OGL LOG] init_host_sparsity_pattern : 258 ms
[OGL LOG] matrix not stored update host matrix
[OGL LOG] update_host_mtx : 134 ms
[OGL LOG] matrix is not yet sorted, sorting host matrix
[OGL LOG] sort_host_mtx_sparsity_pattern : 104 ms
[OGL LOG] sort_host_mtx : 68 ms
[OGL LOG] init_preconditioner : 0 ms
[OGL LOG] solve : 437 ms
BJhipGKOBiCGStab:  Solving for p, Initial residual = 0.793349, Final residual = 6.86745e-05, No Iterations 403
linear solve p 1029253
time step continuity errors : sum local = 0.116011, global = 1.42292e-17, cumulative = -1.61688e-16
ExecutionTime = 18.51 s  ClockTime = 17 s

Time = 0.004

Courant Number mean: 0.199886 max: 2.83069
DILUPBiCGStab:  Solving for Ux, Initial residual = 0.327194, Final residual = 0.00284889, No Iterations 5
DILUPBiCGStab:  Solving for Uy, Initial residual = 0.64444, Final residual = 0.00334048, No Iterations 5
DILUPBiCGStab:  Solving for Uz, Initial residual = 0.654593, Final residual = 0.00223621, No Iterations 5
linear solve U 487618
[OGL LOG] init_host_sparsity_pattern : 259 ms
[OGL LOG] matrix not stored update host matrix
[OGL LOG] update_host_mtx : 128 ms
[OGL LOG] matrix is not yet sorted, sorting host matrix
[OGL LOG] sort_host_mtx_sparsity_pattern : 112 ms
[OGL LOG] sort_host_mtx : 69 ms
[OGL LOG] init_preconditioner : 0 ms
[OGL LOG] solve : 420 ms
BJhipGKOBiCGStab:  Solving for p, Initial residual = 0.876663, Final residual = 9.8215e-05, No Iterations 387
linear solve p 1016105
time step continuity errors : sum local = 0.00104825, global = 1.41895e-19, cumulative = -1.61546e-16
[OGL LOG] init_host_sparsity_pattern : 258 ms
[OGL LOG] matrix not stored update host matrix
[OGL LOG] update_host_mtx : 126 ms
[OGL LOG] matrix is not yet sorted, sorting host matrix
[OGL LOG] sort_host_mtx_sparsity_pattern : 113 ms
[OGL LOG] sort_host_mtx : 69 ms
[OGL LOG] init_preconditioner : 0 ms
[OGL LOG] solve : 424 ms
BJhipGKOBiCGStab:  Solving for p, Initial residual = 0.788606, Final residual = 1.20766e-05, No Iterations 392
linear solve p 1017593
time step continuity errors : sum local = 3.93021e-06, global = 4.06621e-21, cumulative = -1.61542e-16
ExecutionTime = 21.9 s  ClockTime = 20 s

Time = 0.005

Courant Number mean: 0.155421 max: 1.32347
DILUPBiCGStab:  Solving for Ux, Initial residual = 0.224162, Final residual = 0.00156025, No Iterations 5
DILUPBiCGStab:  Solving for Uy, Initial residual = 0.794747, Final residual = 0.00375759, No Iterations 5
DILUPBiCGStab:  Solving for Uz, Initial residual = 0.893255, Final residual = 0.00186758, No Iterations 5
linear solve U 487585
[OGL LOG] init_host_sparsity_pattern : 252 ms
[OGL LOG] matrix not stored update host matrix
[OGL LOG] update_host_mtx : 126 ms
[OGL LOG] matrix is not yet sorted, sorting host matrix
[OGL LOG] sort_host_mtx_sparsity_pattern : 112 ms
[OGL LOG] sort_host_mtx : 72 ms
[OGL LOG] init_preconditioner : 0 ms
[OGL LOG] solve : 357 ms
BJhipGKOBiCGStab:  Solving for p, Initial residual = 0.976702, Final residual = 8.60807e-05, No Iterations 329
linear solve p 948240
time step continuity errors : sum local = 2.08802e-05, global = -8.35576e-20, cumulative = -1.61625e-16
[OGL LOG] init_host_sparsity_pattern : 252 ms
[OGL LOG] matrix not stored update host matrix
[OGL LOG] update_host_mtx : 134 ms
[OGL LOG] matrix is not yet sorted, sorting host matrix
[OGL LOG] sort_host_mtx_sparsity_pattern : 104 ms
[OGL LOG] sort_host_mtx : 68 ms
[OGL LOG] init_preconditioner : 0 ms
[OGL LOG] solve : 442 ms
BJhipGKOBiCGStab:  Solving for p, Initial residual = 0.802471, Final residual = 8.07222e-05, No Iterations 406
linear solve p 1027411
time step continuity errors : sum local = 0.00300918, global = -1.99395e-18, cumulative = -1.63619e-16
ExecutionTime = 25.19 s  ClockTime = 23 s

Time = 0.006

Courant Number mean: 0.13486 max: 0.94562
DILUPBiCGStab:  Solving for Ux, Initial residual = 0.139488, Final residual = 0.00116215, No Iterations 5
DILUPBiCGStab:  Solving for Uy, Initial residual = 0.752775, Final residual = 0.00158803, No Iterations 5
DILUPBiCGStab:  Solving for Uz, Initial residual = 0.922111, Final residual = 0.00125962, No Iterations 5
linear solve U 486582
[OGL LOG] init_host_sparsity_pattern : 255 ms
[OGL LOG] matrix not stored update host matrix
[OGL LOG] update_host_mtx : 126 ms
[OGL LOG] matrix is not yet sorted, sorting host matrix
[OGL LOG] sort_host_mtx_sparsity_pattern : 110 ms
[OGL LOG] sort_host_mtx : 69 ms
[OGL LOG] init_preconditioner : 0 ms
[OGL LOG] solve : 488 ms
BJhipGKOBiCGStab:  Solving for p, Initial residual = 0.987334, Final residual = 9.40577e-05, No Iterations 451
linear solve p 1075878
time step continuity errors : sum local = 0.00512878, global = -2.03791e-19, cumulative = -1.63823e-16
[OGL LOG] init_host_sparsity_pattern : 252 ms
[OGL LOG] matrix not stored update host matrix
[OGL LOG] update_host_mtx : 134 ms
[OGL LOG] matrix is not yet sorted, sorting host matrix
[OGL LOG] sort_host_mtx_sparsity_pattern : 106 ms
[OGL LOG] sort_host_mtx : 67 ms
[OGL LOG] init_preconditioner : 0 ms
[OGL LOG] solve : 342 ms
BJhipGKOBiCGStab:  Solving for p, Initial residual = 0.804188, Final residual = 6.44117e-05, No Iterations 316
linear solve p 928109
time step continuity errors : sum local = 1.12245e-05, global = -1.05809e-20, cumulative = -1.63834e-16
ExecutionTime = 28.53 s  ClockTime = 26 s

Time = 0.007

Courant Number mean: 0.13256 max: 0.909199
DILUPBiCGStab:  Solving for Ux, Initial residual = 0.137775, Final residual = 0.000905526, No Iterations 5
DILUPBiCGStab:  Solving for Uy, Initial residual = 0.708725, Final residual = 0.00193856, No Iterations 5
DILUPBiCGStab:  Solving for Uz, Initial residual = 0.932904, Final residual = 0.000769065, No Iterations 5
linear solve U 490690
[OGL LOG] init_host_sparsity_pattern : 261 ms
[OGL LOG] matrix not stored update host matrix
[OGL LOG] update_host_mtx : 128 ms
[OGL LOG] matrix is not yet sorted, sorting host matrix
[OGL LOG] sort_host_mtx_sparsity_pattern : 105 ms
[OGL LOG] sort_host_mtx : 68 ms
[OGL LOG] init_preconditioner : 0 ms
[OGL LOG] solve : 144 ms
BJhipGKOBiCGStab:  Solving for p, Initial residual = 0.991224, Final residual = 8.03409e-05, No Iterations 132
linear solve p 733693
time step continuity errors : sum local = 1.78616e-05, global = -1.80503e-19, cumulative = -1.64014e-16
[OGL LOG] init_host_sparsity_pattern : 254 ms
[OGL LOG] matrix not stored update host matrix
[OGL LOG] update_host_mtx : 127 ms
[OGL LOG] matrix is not yet sorted, sorting host matrix
[OGL LOG] sort_host_mtx_sparsity_pattern : 112 ms
[OGL LOG] sort_host_mtx : 68 ms
[OGL LOG] init_preconditioner : 0 ms
[OGL LOG] solve : 166 ms
BJhipGKOBiCGStab:  Solving for p, Initial residual = 0.805934, Final residual = 9.97697e-05, No Iterations 153
linear solve p 754010
time step continuity errors : sum local = 1.57322e-05, global = -1.97102e-20, cumulative = -1.64034e-16
ExecutionTime = 31.02 s  ClockTime = 28 s

Time = 0.008

Courant Number mean: 0.129392 max: 0.870022
DILUPBiCGStab:  Solving for Ux, Initial residual = 0.0970529, Final residual = 0.000740896, No Iterations 5
DILUPBiCGStab:  Solving for Uy, Initial residual = 0.653216, Final residual = 0.00218272, No Iterations 5
DILUPBiCGStab:  Solving for Uz, Initial residual = 0.93856, Final residual = 0.000786879, No Iterations 5
linear solve U 491602
[OGL LOG] init_host_sparsity_pattern : 261 ms
[OGL LOG] matrix not stored update host matrix
[OGL LOG] update_host_mtx : 127 ms
[OGL LOG] matrix is not yet sorted, sorting host matrix
[OGL LOG] sort_host_mtx_sparsity_pattern : 116 ms
[OGL LOG] sort_host_mtx : 67 ms
[OGL LOG] init_preconditioner : 0 ms
[OGL LOG] solve : 405 ms
BJhipGKOBiCGStab:  Solving for p, Initial residual = 0.991937, Final residual = 9.67909e-05, No Iterations 372
linear solve p 1003840
time step continuity errors : sum local = 0.00802312, global = -7.69117e-19, cumulative = -1.64803e-16
[OGL LOG] init_host_sparsity_pattern : 256 ms
[OGL LOG] matrix not stored update host matrix
[OGL LOG] update_host_mtx : 128 ms
[OGL LOG] matrix is not yet sorted, sorting host matrix
[OGL LOG] sort_host_mtx_sparsity_pattern : 108 ms
[OGL LOG] sort_host_mtx : 66 ms
[OGL LOG] init_preconditioner : 0 ms
[OGL LOG] solve : 432 ms
BJhipGKOBiCGStab:  Solving for p, Initial residual = 0.787576, Final residual = 4.50946e-05, No Iterations 398
linear solve p 1019376
time step continuity errors : sum local = 0.0339715, global = -3.85786e-18, cumulative = -1.68661e-16
ExecutionTime = 34.39 s  ClockTime = 31 s

Time = 0.009

Courant Number mean: 0.144201 max: 0.917745
DILUPBiCGStab:  Solving for Ux, Initial residual = 0.0807206, Final residual = 0.000590016, No Iterations 5
DILUPBiCGStab:  Solving for Uy, Initial residual = 0.479008, Final residual = 0.00188338, No Iterations 5
DILUPBiCGStab:  Solving for Uz, Initial residual = 0.713617, Final residual = 0.00181902, No Iterations 5
linear solve U 491853
[OGL LOG] init_host_sparsity_pattern : 261 ms
[OGL LOG] matrix not stored update host matrix
[OGL LOG] update_host_mtx : 127 ms
[OGL LOG] matrix is not yet sorted, sorting host matrix
[OGL LOG] sort_host_mtx_sparsity_pattern : 105 ms
[OGL LOG] sort_host_mtx : 69 ms
[OGL LOG] init_preconditioner : 0 ms
[OGL LOG] solve : 402 ms
BJhipGKOBiCGStab:  Solving for p, Initial residual = 0.861077, Final residual = 9.72388e-05, No Iterations 371
linear solve p 992305
time step continuity errors : sum local = 0.00321307, global = -6.64195e-19, cumulative = -1.69325e-16
[OGL LOG] init_host_sparsity_pattern : 255 ms
[OGL LOG] matrix not stored update host matrix
[OGL LOG] update_host_mtx : 127 ms
[OGL LOG] matrix is not yet sorted, sorting host matrix
[OGL LOG] sort_host_mtx_sparsity_pattern : 112 ms
[OGL LOG] sort_host_mtx : 70 ms
[OGL LOG] init_preconditioner : 0 ms
[OGL LOG] solve : 383 ms
BJhipGKOBiCGStab:  Solving for p, Initial residual = 0.79958, Final residual = 8.46459e-05, No Iterations 354
linear solve p 974418
time step continuity errors : sum local = 8.56329e-06, global = 8.08589e-20, cumulative = -1.69244e-16
ExecutionTime = 37.68 s  ClockTime = 34 s

Time = 0.01

Courant Number mean: 0.134096 max: 0.898263
DILUPBiCGStab:  Solving for Ux, Initial residual = 0.067482, Final residual = 0.000458882, No Iterations 5
DILUPBiCGStab:  Solving for Uy, Initial residual = 0.606158, Final residual = 0.00229025, No Iterations 5
DILUPBiCGStab:  Solving for Uz, Initial residual = 0.919171, Final residual = 0.00157967, No Iterations 5
linear solve U 486943
[OGL LOG] init_host_sparsity_pattern : 252 ms
[OGL LOG] matrix not stored update host matrix
[OGL LOG] update_host_mtx : 126 ms
[OGL LOG] matrix is not yet sorted, sorting host matrix
[OGL LOG] sort_host_mtx_sparsity_pattern : 105 ms
[OGL LOG] sort_host_mtx : 67 ms
[OGL LOG] init_preconditioner : 0 ms
[OGL LOG] solve : 144 ms
BJhipGKOBiCGStab:  Solving for p, Initial residual = 0.988225, Final residual = 9.94455e-05, No Iterations 131
linear solve p 722430
time step continuity errors : sum local = 6.11904e-05, global = 1.91314e-19, cumulative = -1.69053e-16
[OGL LOG] init_host_sparsity_pattern : 256 ms
[OGL LOG] matrix not stored update host matrix
[OGL LOG] update_host_mtx : 134 ms
[OGL LOG] matrix is not yet sorted, sorting host matrix
[OGL LOG] sort_host_mtx_sparsity_pattern : 107 ms
[OGL LOG] sort_host_mtx : 70 ms
[OGL LOG] init_preconditioner : 0 ms
[OGL LOG] solve : 163 ms
BJhipGKOBiCGStab:  Solving for p, Initial residual = 0.810011, Final residual = 9.9191e-05, No Iterations 149
linear solve p 758748
time step continuity errors : sum local = 1.41829e-05, global = -1.09664e-19, cumulative = -1.69162e-16
ExecutionTime = 40.15 s  ClockTime = 36 s

End

