/*---------------------------------------------------------------------------*\
  =========                 |
  \\      /  F ield         | OpenFOAM: The Open Source CFD Toolbox
   \\    /   O peration     | Website:  https://openfoam.org
    \\  /    A nd           | Version:  8
     \\/     M anipulation  |
\*---------------------------------------------------------------------------*/
Build  : 8-13d66902f78c
Exec   : simpleFoam
Date   : Jun 27 2021
Time   : 22:24:07
Host   : "uc2n402.localdomain"
PID    : 2818011
I/O    : uncollated
Case   : /pfs/data5/home/kit/scc/nq7776/code/OGL_DATA/airFoil2D/v0.1-118-gbd9d99d/f584ccac99/IntelXeonGold6230CPU@2.10GHz/Test_2021-06-27-21:59:53/1/p-BiCGStab-GKO-none-omp/airFoil2D
nProcs : 1
sigFpe : Enabling floating point exception trapping (FOAM_SIGFPE).
fileModificationChecking : Monitoring run-time modified files using timeStampMaster (fileModificationSkew 10)
allowSystemOperations : Allowing user-supplied system call operations

// * * * * * * * * * * * * * * * * * * * * * * * * * * * * * * * * * * * * * //
Create time

Create mesh for time = 0


SIMPLE: Convergence criteria found
        p: tolerance 1e-05
        U: tolerance 1e-05
        nuTilda: tolerance 1e-05

Reading field p

Reading field U

Reading/calculating face flux field phi

Selecting incompressible transport model Newtonian
Selecting turbulence model type RAS
Selecting RAS turbulence model SpalartAllmaras
Selecting patchDistMethod meshWave
RAS
{
    model           SpalartAllmaras;
    turbulence      on;
    printCoeffs     on;
    sigmaNut        0.66666;
    kappa           0.41;
    Cb1             0.1355;
    Cb2             0.622;
    Cw2             0.3;
    Cw3             2;
    Cv1             7.1;
    Cs              0.3;
}

No MRF models present

No finite volume options present

Starting time loop

Time = 1

smoothSolver:  Solving for Ux, Initial residual = 1, Final residual = 0.000531638, No Iterations 14
smoothSolver:  Solving for Uy, Initial residual = 1, Final residual = 0.000467931, No Iterations 14
Gingko init_host_sparsity_pattern : 8 ms
 matrix not stored update host matrix 
Gingko update_host_mtx : 4 ms
matrix is not yet sorted, compute sorting idxs 
 compute sorting idxs 214288
Gingko compute_sort : 226 ms
matrix is not yet sorted,  sorting host matrix 
Gingko sort_host_mtx_sparsity_pattern : 5 ms
Gingko sort_host_mtx : 3 ms
Gingko init_preconditioner : 0 ms
 get_precond == NULL
Gingko solve : 490 ms
 copy back
 get iters 
noneompGKOBiCGStab:  Solving for p, Initial residual = 0.00178455, Final residual = 0.579307, No Iterations 499
time step continuity errors : sum local = 0.00131167, global = -0.000116619, cumulative = -0.000116619
smoothSolver:  Solving for nuTilda, Initial residual = 1, Final residual = 0.0312263, No Iterations 2
ExecutionTime = 4.54 s  ClockTime = 1 s

Time = 2

smoothSolver:  Solving for Ux, Initial residual = 0.418303, Final residual = 0.000358085, No Iterations 10
smoothSolver:  Solving for Uy, Initial residual = 0.456301, Final residual = 0.000386732, No Iterations 10
Gingko init_preconditioner : 0 ms
 get_precond == NULL
Gingko solve : 590 ms
 copy back
 get iters 
noneompGKOBiCGStab:  Solving for p, Initial residual = 1, Final residual = 0.13575, No Iterations 499
time step continuity errors : sum local = 0.00350016, global = -0.000721849, cumulative = -0.000838467
smoothSolver:  Solving for nuTilda, Initial residual = 0.0541174, Final residual = 0.0017147, No Iterations 4
ExecutionTime = 9.35 s  ClockTime = 1 s

Time = 3

smoothSolver:  Solving for Ux, Initial residual = 0.226241, Final residual = 0.000204546, No Iterations 10
smoothSolver:  Solving for Uy, Initial residual = 0.186228, Final residual = 0.000168685, No Iterations 10
Gingko init_preconditioner : 0 ms
 get_precond == NULL
Gingko solve : 557 ms
 copy back
 get iters 
noneompGKOBiCGStab:  Solving for p, Initial residual = 1.07745, Final residual = 0.0521124, No Iterations 499
time step continuity errors : sum local = 0.00317969, global = -0.000252076, cumulative = -0.00109054
smoothSolver:  Solving for nuTilda, Initial residual = 0.0389015, Final residual = 0.0015714, No Iterations 4
ExecutionTime = 13.87 s  ClockTime = 2 s

Time = 4

smoothSolver:  Solving for Ux, Initial residual = 0.153468, Final residual = 0.000143211, No Iterations 10
smoothSolver:  Solving for Uy, Initial residual = 0.143968, Final residual = 0.000128355, No Iterations 10
Gingko init_preconditioner : 0 ms
 get_precond == NULL
Gingko solve : 545 ms
 copy back
 get iters 
noneompGKOBiCGStab:  Solving for p, Initial residual = 0.293939, Final residual = 0.0184029, No Iterations 499
time step continuity errors : sum local = 0.0114808, global = -0.000562831, cumulative = -0.00165337
smoothSolver:  Solving for nuTilda, Initial residual = 0.0473114, Final residual = 0.00122091, No Iterations 6
bounding nuTilda, min: -1.34734 max: 0.226663 average: 0.138817
ExecutionTime = 18.3 s  ClockTime = 2 s

Time = 5

smoothSolver:  Solving for Ux, Initial residual = 0.31913, Final residual = 0.000234736, No Iterations 18
smoothSolver:  Solving for Uy, Initial residual = 0.269335, Final residual = 7.06676e-05, No Iterations 20
Gingko init_preconditioner : 0 ms
 get_precond == NULL
Gingko solve : 555 ms
 copy back
 get iters 
noneompGKOBiCGStab:  Solving for p, Initial residual = 0.109324, Final residual = 0.0819702, No Iterations 499
time step continuity errors : sum local = 4160.37, global = 0.00141893, cumulative = -0.000234442
smoothSolver:  Solving for nuTilda, Initial residual = 0.000511713, Final residual = 2.64282e-05, No Iterations 10
ExecutionTime = 22.81 s  ClockTime = 3 s

End

