/*---------------------------------------------------------------------------*\
  =========                 |
  \\      /  F ield         | OpenFOAM: The Open Source CFD Toolbox
   \\    /   O peration     | Website:  https://openfoam.org
    \\  /    A nd           | Version:  8
     \\/     M anipulation  |
\*---------------------------------------------------------------------------*/
Build  : 8-13d66902f78c
Exec   : simpleFoam
Date   : Jun 27 2021
Time   : 21:54:00
Host   : "uc2n529.localdomain"
PID    : 3708568
I/O    : uncollated
Case   : /pfs/data5/home/kit/scc/nq7776/code/OGL_DATA/airFoil2D/v0.1-118-gbd9d99d/f584ccac99/IntelXeonGold6230CPU@2.10GHz/Test_2021-06-27-21:28:28/1/p-BiCGStab-GKO-BJ-omp/airFoil2D
nProcs : 1
sigFpe : Enabling floating point exception trapping (FOAM_SIGFPE).
fileModificationChecking : Monitoring run-time modified files using timeStampMaster (fileModificationSkew 10)
allowSystemOperations : Allowing user-supplied system call operations

// * * * * * * * * * * * * * * * * * * * * * * * * * * * * * * * * * * * * * //
Create time

Create mesh for time = 0


SIMPLE: Convergence criteria found
        p: tolerance 1e-05
        U: tolerance 1e-05
        nuTilda: tolerance 1e-05

Reading field p

Reading field U

Reading/calculating face flux field phi

Selecting incompressible transport model Newtonian
Selecting turbulence model type RAS
Selecting RAS turbulence model SpalartAllmaras
Selecting patchDistMethod meshWave
RAS
{
    model           SpalartAllmaras;
    turbulence      on;
    printCoeffs     on;
    sigmaNut        0.66666;
    kappa           0.41;
    Cb1             0.1355;
    Cb2             0.622;
    Cw2             0.3;
    Cw3             2;
    Cv1             7.1;
    Cs              0.3;
}

No MRF models present

No finite volume options present

Starting time loop

Time = 1

smoothSolver:  Solving for Ux, Initial residual = 1, Final residual = 0.000531638, No Iterations 14
smoothSolver:  Solving for Uy, Initial residual = 1, Final residual = 0.000467931, No Iterations 14
Gingko init_host_sparsity_pattern : 8 ms
 matrix not stored update host matrix 
Gingko update_host_mtx : 4 ms
matrix is not yet sorted, compute sorting idxs 
 compute sorting idxs 214288
Gingko compute_sort : 226 ms
matrix is not yet sorted,  sorting host matrix 
Gingko sort_host_mtx_sparsity_pattern : 5 ms
Gingko sort_host_mtx : 3 ms
Gingko init_preconditioner : 3 ms
Gingko solve : 1254 ms
 copy back
 get iters 
BJompGKOBiCGStab:  Solving for p, Initial residual = 0.00178455, Final residual = 0.00527344, No Iterations 499
time step continuity errors : sum local = 1.2108e-05, global = -6.23013e-06, cumulative = -6.23013e-06
smoothSolver:  Solving for nuTilda, Initial residual = 1, Final residual = 0.0317439, No Iterations 2
ExecutionTime = 5.64 s  ClockTime = 2 s

Time = 2

smoothSolver:  Solving for Ux, Initial residual = 0.556617, Final residual = 0.000506779, No Iterations 10
smoothSolver:  Solving for Uy, Initial residual = 0.585949, Final residual = 0.000526152, No Iterations 10
 found preconditioner 
Gingko init_preconditioner : 0 ms
Gingko solve : 1295 ms
 copy back
 get iters 
BJompGKOBiCGStab:  Solving for p, Initial residual = 1, Final residual = 0.00043428, No Iterations 499
time step continuity errors : sum local = 0.00258756, global = 1.40964e-05, cumulative = 7.86622e-06
smoothSolver:  Solving for nuTilda, Initial residual = 0.0577761, Final residual = 0.00183957, No Iterations 4
ExecutionTime = 10.86 s  ClockTime = 3 s

Time = 3

smoothSolver:  Solving for Ux, Initial residual = 0.169328, Final residual = 0.0001622, No Iterations 10
smoothSolver:  Solving for Uy, Initial residual = 0.133535, Final residual = 0.000122963, No Iterations 10
 found preconditioner 
Gingko init_preconditioner : 0 ms
Gingko solve : 1292 ms
 copy back
 get iters 
BJompGKOBiCGStab:  Solving for p, Initial residual = 0.0740912, Final residual = 0.000390664, No Iterations 499
time step continuity errors : sum local = 0.00264437, global = 1.12029e-05, cumulative = 1.90692e-05
smoothSolver:  Solving for nuTilda, Initial residual = 0.0391392, Final residual = 0.00160958, No Iterations 4
ExecutionTime = 16.08 s  ClockTime = 4 s

Time = 4

smoothSolver:  Solving for Ux, Initial residual = 0.0673282, Final residual = 5.56051e-05, No Iterations 10
smoothSolver:  Solving for Uy, Initial residual = 0.073824, Final residual = 6.2774e-05, No Iterations 10
 found preconditioner 
Gingko init_preconditioner : 0 ms
Gingko solve : 1294 ms
 copy back
 get iters 
BJompGKOBiCGStab:  Solving for p, Initial residual = 0.0721888, Final residual = 0.000188768, No Iterations 499
time step continuity errors : sum local = 0.00319215, global = 4.03183e-06, cumulative = 2.3101e-05
smoothSolver:  Solving for nuTilda, Initial residual = 0.0475907, Final residual = 0.00193704, No Iterations 4
bounding nuTilda, min: -0.921116 max: 0.227289 average: 0.138914
ExecutionTime = 21.3 s  ClockTime = 6 s

Time = 5

smoothSolver:  Solving for Ux, Initial residual = 0.228939, Final residual = 9.64583e-05, No Iterations 16
smoothSolver:  Solving for Uy, Initial residual = 0.226551, Final residual = 0.00020365, No Iterations 14
 found preconditioner 
Gingko init_preconditioner : 0 ms
Gingko solve : 1296 ms
 copy back
 get iters 
BJompGKOBiCGStab:  Solving for p, Initial residual = 0.181828, Final residual = 5.01795e-05, No Iterations 499
time step continuity errors : sum local = 2939.65, global = -6.86138e-06, cumulative = 1.62396e-05
smoothSolver:  Solving for nuTilda, Initial residual = 0.0301577, Final residual = 0.00275995, No Iterations 12
ExecutionTime = 26.54 s  ClockTime = 7 s

End

