/*---------------------------------------------------------------------------*\
  =========                 |
  \\      /  F ield         | OpenFOAM: The Open Source CFD Toolbox
   \\    /   O peration     | Website:  https://openfoam.org
    \\  /    A nd           | Version:  8
     \\/     M anipulation  |
\*---------------------------------------------------------------------------*/
Build  : 8-13d66902f78c
Exec   : simpleFoam
Date   : Jun 29 2021
Time   : 11:17:00
Host   : "uc2n547.localdomain"
PID    : 3114109
I/O    : uncollated
Case   : /pfs/data5/home/kit/scc/nq7776/code/OGL_DATA/airFoil2D/v0.1-119-gd926e8b/f584ccac99/IntelXeonGold6230CPU@2.10GHz/Test_2021-06-29-11:03:05/1/p-BiCGStab-GKO-BJ-omp/airFoil2D
nProcs : 1
sigFpe : Enabling floating point exception trapping (FOAM_SIGFPE).
fileModificationChecking : Monitoring run-time modified files using timeStampMaster (fileModificationSkew 10)
allowSystemOperations : Allowing user-supplied system call operations

// * * * * * * * * * * * * * * * * * * * * * * * * * * * * * * * * * * * * * //
Create time

Create mesh for time = 0


SIMPLE: Convergence criteria found
        p: tolerance 1e-05
        U: tolerance 1e-05
        nuTilda: tolerance 1e-05

Reading field p

Reading field U

Reading/calculating face flux field phi

Selecting incompressible transport model Newtonian
Selecting turbulence model type RAS
Selecting RAS turbulence model SpalartAllmaras
Selecting patchDistMethod meshWave
RAS
{
    model           SpalartAllmaras;
    turbulence      on;
    printCoeffs     on;
    sigmaNut        0.66666;
    kappa           0.41;
    Cb1             0.1355;
    Cb2             0.622;
    Cw2             0.3;
    Cw3             2;
    Cv1             7.1;
    Cs              0.3;
}

No MRF models present

No finite volume options present

Starting time loop

Time = 1

smoothSolver:  Solving for Ux, Initial residual = 1, Final residual = 0.000531638, No Iterations 14
smoothSolver:  Solving for Uy, Initial residual = 1, Final residual = 0.000467931, No Iterations 14
Gingko init_host_sparsity_pattern : 8 ms
 matrix not stored update host matrix 
Gingko update_host_mtx : 4 ms
matrix is not yet sorted, compute sorting idxs 
 compute sorting idxs 214288
Gingko compute_sort : 227 ms
matrix is not yet sorted,  sorting host matrix 
Gingko sort_host_mtx_sparsity_pattern : 5 ms
Gingko sort_host_mtx : 3 ms
Gingko init_preconditioner : 8 ms
Gingko solve : 813 ms
 copy back
 get iters 
BJompGKOBiCGStab:  Solving for p, Initial residual = 0.00178455, Final residual = 0.00527344, No Iterations 499
time step continuity errors : sum local = 1.2112e-05, global = -6.23013e-06, cumulative = -6.23013e-06
smoothSolver:  Solving for nuTilda, Initial residual = 1, Final residual = 0.0317439, No Iterations 2
ExecutionTime = 26.54 s  ClockTime = 2 s

Time = 2

smoothSolver:  Solving for Ux, Initial residual = 0.556617, Final residual = 0.000506779, No Iterations 10
smoothSolver:  Solving for Uy, Initial residual = 0.585949, Final residual = 0.000526152, No Iterations 10
 found preconditioner 
Gingko init_preconditioner : 0 ms
Gingko solve : 808 ms
 copy back
 get iters 
BJompGKOBiCGStab:  Solving for p, Initial residual = 1, Final residual = 0.000151659, No Iterations 499
time step continuity errors : sum local = 0.00257182, global = 8.27624e-06, cumulative = 2.04611e-06
smoothSolver:  Solving for nuTilda, Initial residual = 0.0577859, Final residual = 0.00184039, No Iterations 4
ExecutionTime = 52.55 s  ClockTime = 3 s

Time = 3

smoothSolver:  Solving for Ux, Initial residual = 0.169866, Final residual = 0.000162678, No Iterations 10
smoothSolver:  Solving for Uy, Initial residual = 0.134098, Final residual = 0.000123449, No Iterations 10
 found preconditioner 
Gingko init_preconditioner : 0 ms
Gingko solve : 706 ms
 copy back
 get iters 
BJompGKOBiCGStab:  Solving for p, Initial residual = 0.0740912, Final residual = 0.000418451, No Iterations 499
time step continuity errors : sum local = 0.00264559, global = 9.95426e-06, cumulative = 1.20004e-05
smoothSolver:  Solving for nuTilda, Initial residual = 0.0391521, Final residual = 0.00161064, No Iterations 4
ExecutionTime = 75.27 s  ClockTime = 3 s

Time = 4

smoothSolver:  Solving for Ux, Initial residual = 0.0673939, Final residual = 5.56191e-05, No Iterations 10
smoothSolver:  Solving for Uy, Initial residual = 0.0738817, Final residual = 6.27854e-05, No Iterations 10
 found preconditioner 
Gingko init_preconditioner : 0 ms
Gingko solve : 696 ms
 copy back
 get iters 
BJompGKOBiCGStab:  Solving for p, Initial residual = 0.071935, Final residual = 0.000108332, No Iterations 499
time step continuity errors : sum local = 0.00319694, global = 2.28066e-06, cumulative = 1.4281e-05
smoothSolver:  Solving for nuTilda, Initial residual = 0.047583, Final residual = 0.00194583, No Iterations 4
bounding nuTilda, min: -0.925866 max: 0.227318 average: 0.138913
ExecutionTime = 97.67 s  ClockTime = 4 s

Time = 5

smoothSolver:  Solving for Ux, Initial residual = 0.229529, Final residual = 9.65984e-05, No Iterations 16
smoothSolver:  Solving for Uy, Initial residual = 0.227161, Final residual = 0.000203528, No Iterations 14
 found preconditioner 
Gingko init_preconditioner : 0 ms
Gingko solve : 686 ms
 copy back
 get iters 
BJompGKOBiCGStab:  Solving for p, Initial residual = 0.181253, Final residual = 2.01447e-05, No Iterations 499
time step continuity errors : sum local = 2940.41, global = -5.3818e-06, cumulative = 8.89923e-06
smoothSolver:  Solving for nuTilda, Initial residual = 0.0301803, Final residual = 0.00274873, No Iterations 12
ExecutionTime = 119.76 s  ClockTime = 5 s

End

