/*---------------------------------------------------------------------------*\
  =========                 |
  \\      /  F ield         | OpenFOAM: The Open Source CFD Toolbox
   \\    /   O peration     | Website:  https://openfoam.org
    \\  /    A nd           | Version:  8
     \\/     M anipulation  |
\*---------------------------------------------------------------------------*/
Build  : 8-13d66902f78c
Exec   : simpleFoam
Date   : Jun 29 2021
Time   : 10:59:12
Host   : "uc2n404.localdomain"
PID    : 3075710
I/O    : uncollated
Case   : /pfs/data5/home/kit/scc/nq7776/code/OGL_DATA/airFoil2D/v0.1-119-gd926e8b/f584ccac99/IntelXeonGold6230CPU@2.10GHz/Test_2021-06-29-10:45:53/1/p-BiCGStab-GKO-none-omp/airFoil2D
nProcs : 1
sigFpe : Enabling floating point exception trapping (FOAM_SIGFPE).
fileModificationChecking : Monitoring run-time modified files using timeStampMaster (fileModificationSkew 10)
allowSystemOperations : Allowing user-supplied system call operations

// * * * * * * * * * * * * * * * * * * * * * * * * * * * * * * * * * * * * * //
Create time

Create mesh for time = 0


SIMPLE: Convergence criteria found
        p: tolerance 1e-05
        U: tolerance 1e-05
        nuTilda: tolerance 1e-05

Reading field p

Reading field U

Reading/calculating face flux field phi

Selecting incompressible transport model Newtonian
Selecting turbulence model type RAS
Selecting RAS turbulence model SpalartAllmaras
Selecting patchDistMethod meshWave
RAS
{
    model           SpalartAllmaras;
    turbulence      on;
    printCoeffs     on;
    sigmaNut        0.66666;
    kappa           0.41;
    Cb1             0.1355;
    Cb2             0.622;
    Cw2             0.3;
    Cw3             2;
    Cv1             7.1;
    Cs              0.3;
}

No MRF models present

No finite volume options present

Starting time loop

Time = 1

smoothSolver:  Solving for Ux, Initial residual = 1, Final residual = 0.000531638, No Iterations 14
smoothSolver:  Solving for Uy, Initial residual = 1, Final residual = 0.000467931, No Iterations 14
Gingko init_host_sparsity_pattern : 8 ms
 matrix not stored update host matrix 
Gingko update_host_mtx : 4 ms
matrix is not yet sorted, compute sorting idxs 
 compute sorting idxs 214288
Gingko compute_sort : 226 ms
matrix is not yet sorted,  sorting host matrix 
Gingko sort_host_mtx_sparsity_pattern : 5 ms
Gingko sort_host_mtx : 3 ms
Gingko init_preconditioner : 0 ms
 get_precond == NULL
Gingko solve : 993 ms
 copy back
 get iters 
noneompGKOBiCGStab:  Solving for p, Initial residual = 0.00178455, Final residual = 0.579307, No Iterations 499
time step continuity errors : sum local = 0.00132887, global = -0.000116619, cumulative = -0.000116619
smoothSolver:  Solving for nuTilda, Initial residual = 1, Final residual = 0.0312263, No Iterations 2
ExecutionTime = 61.43 s  ClockTime = 1 s

Time = 2

smoothSolver:  Solving for Ux, Initial residual = 0.418303, Final residual = 0.000358085, No Iterations 10
smoothSolver:  Solving for Uy, Initial residual = 0.456304, Final residual = 0.000386731, No Iterations 10
Gingko init_preconditioner : 0 ms
 get_precond == NULL
Gingko solve : 752 ms
 copy back
 get iters 
noneompGKOBiCGStab:  Solving for p, Initial residual = 1, Final residual = 0.13508, No Iterations 499
time step continuity errors : sum local = 0.00355435, global = -0.000720731, cumulative = -0.00083735
smoothSolver:  Solving for nuTilda, Initial residual = 0.0541502, Final residual = 0.0017156, No Iterations 4
ExecutionTime = 109.82 s  ClockTime = 2 s

Time = 3

smoothSolver:  Solving for Ux, Initial residual = 0.22748, Final residual = 0.000205586, No Iterations 10
smoothSolver:  Solving for Uy, Initial residual = 0.186705, Final residual = 0.000169157, No Iterations 10
Gingko init_preconditioner : 0 ms
 get_precond == NULL
Gingko solve : 713 ms
 copy back
 get iters 
noneompGKOBiCGStab:  Solving for p, Initial residual = 1.07901, Final residual = 0.0647919, No Iterations 499
time step continuity errors : sum local = 0.00333102, global = -0.000330146, cumulative = -0.0011675
smoothSolver:  Solving for nuTilda, Initial residual = 0.0389553, Final residual = 0.00157476, No Iterations 4
ExecutionTime = 155.69 s  ClockTime = 3 s

Time = 4

smoothSolver:  Solving for Ux, Initial residual = 0.156883, Final residual = 0.000145964, No Iterations 10
smoothSolver:  Solving for Uy, Initial residual = 0.146333, Final residual = 0.000130208, No Iterations 10
Gingko init_preconditioner : 0 ms
 get_precond == NULL
Gingko solve : 716 ms
 copy back
 get iters 
noneompGKOBiCGStab:  Solving for p, Initial residual = 0.315416, Final residual = 0.0124524, No Iterations 499
time step continuity errors : sum local = 0.0039722, global = 0.000495811, cumulative = -0.000671684
smoothSolver:  Solving for nuTilda, Initial residual = 0.0446175, Final residual = 0.00278057, No Iterations 4
bounding nuTilda, min: -0.933175 max: 0.226942 average: 0.138944
ExecutionTime = 201.77 s  ClockTime = 4 s

Time = 5

smoothSolver:  Solving for Ux, Initial residual = 0.240263, Final residual = 0.000168837, No Iterations 16
smoothSolver:  Solving for Uy, Initial residual = 0.259288, Final residual = 7.39485e-05, No Iterations 14
Gingko init_preconditioner : 0 ms
 get_precond == NULL
Gingko solve : 703 ms
 copy back
 get iters 
noneompGKOBiCGStab:  Solving for p, Initial residual = 0.114453, Final residual = 0.0218264, No Iterations 499
time step continuity errors : sum local = 1812.88, global = 0.0013968, cumulative = 0.000725114
smoothSolver:  Solving for nuTilda, Initial residual = 0.0349321, Final residual = 0.000864877, No Iterations 8
ExecutionTime = 247.03 s  ClockTime = 4 s

End

