/*---------------------------------------------------------------------------*\
  =========                 |
  \\      /  F ield         | OpenFOAM: The Open Source CFD Toolbox
   \\    /   O peration     | Website:  https://openfoam.org
    \\  /    A nd           | Version:  8
     \\/     M anipulation  |
\*---------------------------------------------------------------------------*/
Build  : 8-13d66902f78c
Exec   : simpleFoam
Date   : Jun 29 2021
Time   : 11:14:48
Host   : "uc2n547.localdomain"
PID    : 3113657
I/O    : uncollated
Case   : /pfs/data5/home/kit/scc/nq7776/code/OGL_DATA/airFoil2D/v0.1-119-gd926e8b/f584ccac99/IntelXeonGold6230CPU@2.10GHz/Test_2021-06-29-11:03:05/1/p-BiCGStab-GKO-BJ-omp/airFoil2D
nProcs : 1
sigFpe : Enabling floating point exception trapping (FOAM_SIGFPE).
fileModificationChecking : Monitoring run-time modified files using timeStampMaster (fileModificationSkew 10)
allowSystemOperations : Allowing user-supplied system call operations

// * * * * * * * * * * * * * * * * * * * * * * * * * * * * * * * * * * * * * //
Create time

Create mesh for time = 0


SIMPLE: Convergence criteria found
        p: tolerance 1e-05
        U: tolerance 1e-05
        nuTilda: tolerance 1e-05

Reading field p

Reading field U

Reading/calculating face flux field phi

Selecting incompressible transport model Newtonian
Selecting turbulence model type RAS
Selecting RAS turbulence model SpalartAllmaras
Selecting patchDistMethod meshWave
RAS
{
    model           SpalartAllmaras;
    turbulence      on;
    printCoeffs     on;
    sigmaNut        0.66666;
    kappa           0.41;
    Cb1             0.1355;
    Cb2             0.622;
    Cw2             0.3;
    Cw3             2;
    Cv1             7.1;
    Cs              0.3;
}

No MRF models present

No finite volume options present

Starting time loop

Time = 1

smoothSolver:  Solving for Ux, Initial residual = 1, Final residual = 0.000531638, No Iterations 14
smoothSolver:  Solving for Uy, Initial residual = 1, Final residual = 0.000467931, No Iterations 14
Gingko init_host_sparsity_pattern : 8 ms
 matrix not stored update host matrix 
Gingko update_host_mtx : 4 ms
matrix is not yet sorted, compute sorting idxs 
 compute sorting idxs 214288
Gingko compute_sort : 226 ms
matrix is not yet sorted,  sorting host matrix 
Gingko sort_host_mtx_sparsity_pattern : 5 ms
Gingko sort_host_mtx : 3 ms
Gingko init_preconditioner : 2 ms
Gingko solve : 803 ms
 copy back
 get iters 
BJompGKOBiCGStab:  Solving for p, Initial residual = 0.00178455, Final residual = 0.00527344, No Iterations 499
time step continuity errors : sum local = 1.2108e-05, global = -6.23013e-06, cumulative = -6.23013e-06
smoothSolver:  Solving for nuTilda, Initial residual = 1, Final residual = 0.0317439, No Iterations 2
ExecutionTime = 7.05 s  ClockTime = 1 s

Time = 2

smoothSolver:  Solving for Ux, Initial residual = 0.556617, Final residual = 0.000506779, No Iterations 10
smoothSolver:  Solving for Uy, Initial residual = 0.585949, Final residual = 0.000526152, No Iterations 10
 found preconditioner 
Gingko init_preconditioner : 0 ms
Gingko solve : 883 ms
 copy back
 get iters 
BJompGKOBiCGStab:  Solving for p, Initial residual = 1, Final residual = 0.00043428, No Iterations 499
time step continuity errors : sum local = 0.00258766, global = 1.40964e-05, cumulative = 7.86622e-06
smoothSolver:  Solving for nuTilda, Initial residual = 0.0577761, Final residual = 0.00183957, No Iterations 4
ExecutionTime = 14.19 s  ClockTime = 2 s

Time = 3

smoothSolver:  Solving for Ux, Initial residual = 0.169328, Final residual = 0.0001622, No Iterations 10
smoothSolver:  Solving for Uy, Initial residual = 0.133535, Final residual = 0.000122963, No Iterations 10
 found preconditioner 
Gingko init_preconditioner : 0 ms
Gingko solve : 869 ms
 copy back
 get iters 
BJompGKOBiCGStab:  Solving for p, Initial residual = 0.0740912, Final residual = 0.00053358, No Iterations 499
time step continuity errors : sum local = 0.0026489, global = 1.27861e-05, cumulative = 2.06523e-05
smoothSolver:  Solving for nuTilda, Initial residual = 0.0391375, Final residual = 0.00160927, No Iterations 4
ExecutionTime = 21.21 s  ClockTime = 3 s

Time = 4

smoothSolver:  Solving for Ux, Initial residual = 0.0674216, Final residual = 5.56536e-05, No Iterations 10
smoothSolver:  Solving for Uy, Initial residual = 0.0738668, Final residual = 6.27767e-05, No Iterations 10
 found preconditioner 
Gingko init_preconditioner : 0 ms
Gingko solve : 879 ms
 copy back
 get iters 
BJompGKOBiCGStab:  Solving for p, Initial residual = 0.0721908, Final residual = 0.000331513, No Iterations 499
time step continuity errors : sum local = 0.00319444, global = 6.22435e-06, cumulative = 2.68767e-05
smoothSolver:  Solving for nuTilda, Initial residual = 0.0475769, Final residual = 0.00193095, No Iterations 4
bounding nuTilda, min: -0.917945 max: 0.227284 average: 0.138914
ExecutionTime = 28.31 s  ClockTime = 4 s

Time = 5

smoothSolver:  Solving for Ux, Initial residual = 0.229132, Final residual = 9.63881e-05, No Iterations 16
smoothSolver:  Solving for Uy, Initial residual = 0.226608, Final residual = 0.000203358, No Iterations 14
 found preconditioner 
Gingko init_preconditioner : 0 ms
Gingko solve : 867 ms
 copy back
 get iters 
BJompGKOBiCGStab:  Solving for p, Initial residual = 0.181867, Final residual = 8.471e-05, No Iterations 499
time step continuity errors : sum local = 2937.45, global = -9.67615e-06, cumulative = 1.72005e-05
smoothSolver:  Solving for nuTilda, Initial residual = 0.0301866, Final residual = 0.00277023, No Iterations 12
ExecutionTime = 35.3 s  ClockTime = 5 s

End

