/*---------------------------------------------------------------------------*\
  =========                 |
  \\      /  F ield         | OpenFOAM: The Open Source CFD Toolbox
   \\    /   O peration     | Website:  https://openfoam.org
    \\  /    A nd           | Version:  8
     \\/     M anipulation  |
\*---------------------------------------------------------------------------*/
Build  : 8-13d66902f78c
Exec   : simpleFoam
Date   : Jun 29 2021
Time   : 10:52:36
Host   : "uc2n404.localdomain"
PID    : 3074358
I/O    : uncollated
Case   : /pfs/data5/home/kit/scc/nq7776/code/OGL_DATA/airFoil2D/v0.1-119-gd926e8b/f584ccac99/IntelXeonGold6230CPU@2.10GHz/Test_2021-06-29-10:45:53/1/p-BiCGStab-GKO-none-omp/airFoil2D
nProcs : 1
sigFpe : Enabling floating point exception trapping (FOAM_SIGFPE).
fileModificationChecking : Monitoring run-time modified files using timeStampMaster (fileModificationSkew 10)
allowSystemOperations : Allowing user-supplied system call operations

// * * * * * * * * * * * * * * * * * * * * * * * * * * * * * * * * * * * * * //
Create time

Create mesh for time = 0


SIMPLE: Convergence criteria found
        p: tolerance 1e-05
        U: tolerance 1e-05
        nuTilda: tolerance 1e-05

Reading field p

Reading field U

Reading/calculating face flux field phi

Selecting incompressible transport model Newtonian
Selecting turbulence model type RAS
Selecting RAS turbulence model SpalartAllmaras
Selecting patchDistMethod meshWave
RAS
{
    model           SpalartAllmaras;
    turbulence      on;
    printCoeffs     on;
    sigmaNut        0.66666;
    kappa           0.41;
    Cb1             0.1355;
    Cb2             0.622;
    Cw2             0.3;
    Cw3             2;
    Cv1             7.1;
    Cs              0.3;
}

No MRF models present

No finite volume options present

Starting time loop

Time = 1

smoothSolver:  Solving for Ux, Initial residual = 1, Final residual = 0.000531638, No Iterations 14
smoothSolver:  Solving for Uy, Initial residual = 1, Final residual = 0.000467931, No Iterations 14
Gingko init_host_sparsity_pattern : 8 ms
 matrix not stored update host matrix 
Gingko update_host_mtx : 4 ms
matrix is not yet sorted, compute sorting idxs 
 compute sorting idxs 214288
Gingko compute_sort : 226 ms
matrix is not yet sorted,  sorting host matrix 
Gingko sort_host_mtx_sparsity_pattern : 5 ms
Gingko sort_host_mtx : 3 ms
Gingko init_preconditioner : 0 ms
 get_precond == NULL
Gingko solve : 1113 ms
 copy back
 get iters 
noneompGKOBiCGStab:  Solving for p, Initial residual = 0.00178455, Final residual = 0.579307, No Iterations 499
time step continuity errors : sum local = 0.00131744, global = -0.000116619, cumulative = -0.000116619
smoothSolver:  Solving for nuTilda, Initial residual = 1, Final residual = 0.0312351, No Iterations 2
ExecutionTime = 1.68 s  ClockTime = 1 s

Time = 2

smoothSolver:  Solving for Ux, Initial residual = 0.4183, Final residual = 0.000358116, No Iterations 10
smoothSolver:  Solving for Uy, Initial residual = 0.4563, Final residual = 0.000386731, No Iterations 10
Gingko init_preconditioner : 0 ms
 get_precond == NULL
Gingko solve : 1109 ms
 copy back
 get iters 
noneompGKOBiCGStab:  Solving for p, Initial residual = 1, Final residual = 0.149111, No Iterations 499
time step continuity errors : sum local = 0.00363407, global = -0.000722454, cumulative = -0.000839073
smoothSolver:  Solving for nuTilda, Initial residual = 0.0541775, Final residual = 0.00171624, No Iterations 4
ExecutionTime = 2.83 s  ClockTime = 3 s

Time = 3

smoothSolver:  Solving for Ux, Initial residual = 0.229036, Final residual = 0.000206832, No Iterations 10
smoothSolver:  Solving for Uy, Initial residual = 0.18747, Final residual = 0.000169892, No Iterations 10
Gingko init_preconditioner : 0 ms
 get_precond == NULL
Gingko solve : 1109 ms
 copy back
 get iters 
noneompGKOBiCGStab:  Solving for p, Initial residual = 1.07751, Final residual = 0.0726945, No Iterations 499
time step continuity errors : sum local = 0.00337341, global = -0.00035761, cumulative = -0.00119668
smoothSolver:  Solving for nuTilda, Initial residual = 0.0389641, Final residual = 0.0015755, No Iterations 4
ExecutionTime = 3.98 s  ClockTime = 4 s

Time = 4

smoothSolver:  Solving for Ux, Initial residual = 0.156214, Final residual = 0.000145148, No Iterations 10
smoothSolver:  Solving for Uy, Initial residual = 0.146439, Final residual = 0.00013017, No Iterations 10
Gingko init_preconditioner : 0 ms
 get_precond == NULL
Gingko solve : 1108 ms
 copy back
 get iters 
noneompGKOBiCGStab:  Solving for p, Initial residual = 0.344036, Final residual = 0.0190968, No Iterations 499
time step continuity errors : sum local = 0.00431702, global = 0.000589552, cumulative = -0.00060713
smoothSolver:  Solving for nuTilda, Initial residual = 0.0444278, Final residual = 0.00274871, No Iterations 4
bounding nuTilda, min: -0.907576 max: 0.2271 average: 0.138949
ExecutionTime = 5.13 s  ClockTime = 5 s

Time = 5

smoothSolver:  Solving for Ux, Initial residual = 0.241594, Final residual = 0.000185915, No Iterations 16
smoothSolver:  Solving for Uy, Initial residual = 0.257846, Final residual = 0.00013872, No Iterations 14
Gingko init_preconditioner : 0 ms
 get_precond == NULL
Gingko solve : 1109 ms
 copy back
 get iters 
noneompGKOBiCGStab:  Solving for p, Initial residual = 0.117007, Final residual = 0.0244065, No Iterations 499
time step continuity errors : sum local = 1836.93, global = 0.00144802, cumulative = 0.000840888
smoothSolver:  Solving for nuTilda, Initial residual = 0.0341467, Final residual = 0.00244675, No Iterations 8
ExecutionTime = 6.29 s  ClockTime = 6 s

End

