/*---------------------------------------------------------------------------*\
  =========                 |
  \\      /  F ield         | OpenFOAM: The Open Source CFD Toolbox
   \\    /   O peration     | Website:  https://openfoam.org
    \\  /    A nd           | Version:  8
     \\/     M anipulation  |
\*---------------------------------------------------------------------------*/
Build  : 8-13d66902f78c
Exec   : simpleFoam
Date   : Jun 29 2021
Time   : 13:39:30
Host   : "uc2n377.localdomain"
PID    : 2557206
I/O    : uncollated
Case   : /pfs/data5/home/kit/scc/nq7776/code/OGL_DATA/airFoil2D/v0.1-119-gd926e8b/f584ccac99/IntelXeonGold6230CPU@2.10GHz/Test_2021-06-29-13:25:05/1/p-U-BiCGStab-GKO-BJ-omp/airFoil2D
nProcs : 1
sigFpe : Enabling floating point exception trapping (FOAM_SIGFPE).
fileModificationChecking : Monitoring run-time modified files using timeStampMaster (fileModificationSkew 10)
allowSystemOperations : Allowing user-supplied system call operations

// * * * * * * * * * * * * * * * * * * * * * * * * * * * * * * * * * * * * * //
Create time

Create mesh for time = 0


SIMPLE: Convergence criteria found
        p: tolerance 1e-05
        U: tolerance 1e-05
        nuTilda: tolerance 1e-05

Reading field p

Reading field U

Reading/calculating face flux field phi

Selecting incompressible transport model Newtonian
Selecting turbulence model type RAS
Selecting RAS turbulence model SpalartAllmaras
Selecting patchDistMethod meshWave
RAS
{
    model           SpalartAllmaras;
    turbulence      on;
    printCoeffs     on;
    sigmaNut        0.66666;
    kappa           0.41;
    Cb1             0.1355;
    Cb2             0.622;
    Cw2             0.3;
    Cw3             2;
    Cv1             7.1;
    Cs              0.3;
}

No MRF models present

No finite volume options present

Starting time loop

Time = 1

Gingko init_host_sparsity_pattern : 8 ms
 matrix not stored update host matrix 
Gingko update_host_mtx : 4 ms
matrix is not yet sorted, compute sorting idxs 
 compute sorting idxs 214288
Gingko compute_sort : 226 ms
matrix is not yet sorted,  sorting host matrix 
Gingko sort_host_mtx_sparsity_pattern : 5 ms
Gingko sort_host_mtx : 3 ms
Gingko init_preconditioner : 1 ms
Gingko solve : 50 ms
 copy back
 get iters 
BJompGKOBiCGStab:  Solving for Ux, Initial residual = -0, Final residual = 7.26213e-07, No Iterations 29
Gingko init_host_sparsity_pattern : 11 ms
 matrix not stored update host matrix 
Gingko update_host_mtx : 4 ms
matrix is not yet sorted,  sorting host matrix 
Gingko sort_host_mtx_sparsity_pattern : 5 ms
Gingko sort_host_mtx : 3 ms
Gingko init_preconditioner : 1 ms
Gingko solve : 49 ms
 copy back
 get iters 
BJompGKOBiCGStab:  Solving for Uy, Initial residual = 130.982, Final residual = 7.41617e-07, No Iterations 29
Gingko init_host_sparsity_pattern : 8 ms
 matrix not stored update host matrix 
Gingko update_host_mtx : 4 ms
matrix is not yet sorted,  sorting host matrix 
Gingko sort_host_mtx_sparsity_pattern : 5 ms
Gingko sort_host_mtx : 3 ms
Gingko init_preconditioner : 1 ms
Gingko solve : 770 ms
 copy back
 get iters 
BJompGKOBiCGStab:  Solving for p, Initial residual = 133.957, Final residual = 0.000226736, No Iterations 499
time step continuity errors : sum local = 1.39828e-05, global = -8.97682e-06, cumulative = -8.97682e-06
smoothSolver:  Solving for nuTilda, Initial residual = 1, Final residual = 0.0692598, No Iterations 2
ExecutionTime = 29.25 s  ClockTime = 1 s

Time = 2

Gingko init_host_sparsity_pattern : 8 ms
 matrix not stored update host matrix 
Gingko update_host_mtx : 3 ms
matrix is not yet sorted,  sorting host matrix 
Gingko sort_host_mtx_sparsity_pattern : 5 ms
Gingko sort_host_mtx : 3 ms
 found preconditioner 
Gingko init_preconditioner : 0 ms
Gingko solve : 51 ms
 copy back
 get iters 
BJompGKOBiCGStab:  Solving for Ux, Initial residual = 1, Final residual = 9.76099e-07, No Iterations 33
Gingko init_host_sparsity_pattern : 9 ms
 matrix not stored update host matrix 
Gingko update_host_mtx : 3 ms
matrix is not yet sorted,  sorting host matrix 
Gingko sort_host_mtx_sparsity_pattern : 5 ms
Gingko sort_host_mtx : 3 ms
 found preconditioner 
Gingko init_preconditioner : 0 ms
Gingko solve : 43 ms
 copy back
 get iters 
BJompGKOBiCGStab:  Solving for Uy, Initial residual = 0.54734, Final residual = 9.94138e-07, No Iterations 28
 found preconditioner 
Gingko init_preconditioner : 0 ms
Gingko solve : 779 ms
 copy back
 get iters 
BJompGKOBiCGStab:  Solving for p, Initial residual = 0.716345, Final residual = 6.28861e-05, No Iterations 499
time step continuity errors : sum local = 0.00859513, global = 0.00405771, cumulative = 0.00404873
smoothSolver:  Solving for nuTilda, Initial residual = 0.1242, Final residual = 0.00551521, No Iterations 4
ExecutionTime = 57.74 s  ClockTime = 2 s

Time = 3

Gingko init_host_sparsity_pattern : 8 ms
 matrix not stored update host matrix 
Gingko update_host_mtx : 3 ms
matrix is not yet sorted,  sorting host matrix 
Gingko sort_host_mtx_sparsity_pattern : 6 ms
Gingko sort_host_mtx : 3 ms
 found preconditioner 
Gingko init_preconditioner : 0 ms
Gingko solve : 48 ms
 copy back
 get iters 
BJompGKOBiCGStab:  Solving for Ux, Initial residual = 0.174315, Final residual = 7.85047e-07, No Iterations 26
Gingko init_host_sparsity_pattern : 9 ms
 matrix not stored update host matrix 
Gingko update_host_mtx : 3 ms
matrix is not yet sorted,  sorting host matrix 
Gingko sort_host_mtx_sparsity_pattern : 5 ms
Gingko sort_host_mtx : 3 ms
 found preconditioner 
Gingko init_preconditioner : 0 ms
Gingko solve : 39 ms
 copy back
 get iters 
BJompGKOBiCGStab:  Solving for Uy, Initial residual = 0.279328, Final residual = 9.07482e-07, No Iterations 21
 found preconditioner 
Gingko init_preconditioner : 0 ms
Gingko solve : 709 ms
 copy back
 get iters 
BJompGKOBiCGStab:  Solving for p, Initial residual = 0.215068, Final residual = 5.17096e-05, No Iterations 499
time step continuity errors : sum local = 0.0116904, global = 0.00535418, cumulative = 0.00940291
smoothSolver:  Solving for nuTilda, Initial residual = 0.119549, Final residual = 0.0052278, No Iterations 4
ExecutionTime = 83.79 s  ClockTime = 3 s

Time = 4

Gingko init_host_sparsity_pattern : 8 ms
 matrix not stored update host matrix 
Gingko update_host_mtx : 3 ms
matrix is not yet sorted,  sorting host matrix 
Gingko sort_host_mtx_sparsity_pattern : 5 ms
Gingko sort_host_mtx : 3 ms
 found preconditioner 
Gingko init_preconditioner : 0 ms
Gingko solve : 41 ms
 copy back
 get iters 
BJompGKOBiCGStab:  Solving for Ux, Initial residual = 0.146199, Final residual = 8.47082e-07, No Iterations 29
Gingko init_host_sparsity_pattern : 10 ms
 matrix not stored update host matrix 
Gingko update_host_mtx : 3 ms
matrix is not yet sorted,  sorting host matrix 
Gingko sort_host_mtx_sparsity_pattern : 5 ms
Gingko sort_host_mtx : 3 ms
 found preconditioner 
Gingko init_preconditioner : 0 ms
Gingko solve : 43 ms
 copy back
 get iters 
BJompGKOBiCGStab:  Solving for Uy, Initial residual = 0.226113, Final residual = 9.02082e-07, No Iterations 30
 found preconditioner 
Gingko init_preconditioner : 0 ms
Gingko solve : 704 ms
 copy back
 get iters 
BJompGKOBiCGStab:  Solving for p, Initial residual = 0.170706, Final residual = 0.000106741, No Iterations 499
time step continuity errors : sum local = 0.0129715, global = 0.00522278, cumulative = 0.0146257
smoothSolver:  Solving for nuTilda, Initial residual = 0.12564, Final residual = 0.0056713, No Iterations 4
bounding nuTilda, min: -0.105862 max: 0.349816 average: 0.139475
ExecutionTime = 109.6 s  ClockTime = 4 s

Time = 5

Gingko init_host_sparsity_pattern : 8 ms
 matrix not stored update host matrix 
Gingko update_host_mtx : 4 ms
matrix is not yet sorted,  sorting host matrix 
Gingko sort_host_mtx_sparsity_pattern : 5 ms
Gingko sort_host_mtx : 3 ms
 found preconditioner 
Gingko init_preconditioner : 0 ms
Gingko solve : 63 ms
 copy back
 get iters 
BJompGKOBiCGStab:  Solving for Ux, Initial residual = 0.269005, Final residual = 8.66502e-07, No Iterations 43
Gingko init_host_sparsity_pattern : 9 ms
 matrix not stored update host matrix 
Gingko update_host_mtx : 4 ms
matrix is not yet sorted,  sorting host matrix 
Gingko sort_host_mtx_sparsity_pattern : 5 ms
Gingko sort_host_mtx : 3 ms
 found preconditioner 
Gingko init_preconditioner : 0 ms
Gingko solve : 61 ms
 copy back
 get iters 
BJompGKOBiCGStab:  Solving for Uy, Initial residual = 0.21742, Final residual = 9.0627e-07, No Iterations 42
 found preconditioner 
Gingko init_preconditioner : 0 ms
Gingko solve : 694 ms
 copy back
 get iters 
BJompGKOBiCGStab:  Solving for p, Initial residual = 0.159629, Final residual = 0.000241142, No Iterations 499
time step continuity errors : sum local = 1.67939, global = 0.00570614, cumulative = 0.0203318
smoothSolver:  Solving for nuTilda, Initial residual = 0.0527854, Final residual = 0.00295029, No Iterations 22
ExecutionTime = 136.38 s  ClockTime = 5 s

End

