/*---------------------------------------------------------------------------*\
  =========                 |
  \\      /  F ield         | OpenFOAM: The Open Source CFD Toolbox
   \\    /   O peration     | Website:  https://openfoam.org
    \\  /    A nd           | Version:  8
     \\/     M anipulation  |
\*---------------------------------------------------------------------------*/
Build  : 8-13d66902f78c
Exec   : simpleFoam
Date   : Jun 29 2021
Time   : 12:08:27
Host   : "uc2n435.localdomain"
PID    : 2088282
I/O    : uncollated
Case   : /pfs/data5/home/kit/scc/nq7776/code/OGL_DATA/airFoil2D/v0.1-119-gd926e8b/f584ccac99/IntelXeonGold6230CPU@2.10GHz/Test_2021-06-29-11:55:50/1/p-U-BiCGStab-GKO-none-omp/airFoil2D
nProcs : 1
sigFpe : Enabling floating point exception trapping (FOAM_SIGFPE).
fileModificationChecking : Monitoring run-time modified files using timeStampMaster (fileModificationSkew 10)
allowSystemOperations : Allowing user-supplied system call operations

// * * * * * * * * * * * * * * * * * * * * * * * * * * * * * * * * * * * * * //
Create time

Create mesh for time = 0


SIMPLE: Convergence criteria found
        p: tolerance 1e-05
        U: tolerance 1e-05
        nuTilda: tolerance 1e-05

Reading field p

Reading field U

Reading/calculating face flux field phi

Selecting incompressible transport model Newtonian
Selecting turbulence model type RAS
Selecting RAS turbulence model SpalartAllmaras
Selecting patchDistMethod meshWave
RAS
{
    model           SpalartAllmaras;
    turbulence      on;
    printCoeffs     on;
    sigmaNut        0.66666;
    kappa           0.41;
    Cb1             0.1355;
    Cb2             0.622;
    Cw2             0.3;
    Cw3             2;
    Cv1             7.1;
    Cs              0.3;
}

No MRF models present

No finite volume options present

Starting time loop

Time = 1

Gingko init_host_sparsity_pattern : 8 ms
 matrix not stored update host matrix 
Gingko update_host_mtx : 4 ms
matrix is not yet sorted, compute sorting idxs 
 compute sorting idxs 214288
Gingko compute_sort : 226 ms
matrix is not yet sorted,  sorting host matrix 
Gingko sort_host_mtx_sparsity_pattern : 5 ms
Gingko sort_host_mtx : 3 ms
Gingko init_preconditioner : 0 ms
 get_precond == NULL
Gingko solve : 375 ms
 copy back
 get iters 
noneompGKOBiCGStab:  Solving for Ux, Initial residual = -0, Final residual = 9.05428e-07, No Iterations 313
Gingko init_host_sparsity_pattern : 9 ms
 matrix not stored update host matrix 
Gingko update_host_mtx : 4 ms
matrix is not yet sorted,  sorting host matrix 
Gingko sort_host_mtx_sparsity_pattern : 5 ms
Gingko sort_host_mtx : 3 ms
Gingko init_preconditioner : 0 ms
 get_precond == NULL
Gingko solve : 338 ms
 copy back
 get iters 
noneompGKOBiCGStab:  Solving for Uy, Initial residual = 130.982, Final residual = 9.82174e-07, No Iterations 299
Gingko init_host_sparsity_pattern : 7 ms
 matrix not stored update host matrix 
Gingko update_host_mtx : 4 ms
matrix is not yet sorted,  sorting host matrix 
Gingko sort_host_mtx_sparsity_pattern : 5 ms
Gingko sort_host_mtx : 3 ms
Gingko init_preconditioner : 0 ms
 get_precond == NULL
Gingko solve : 568 ms
 copy back
 get iters 
noneompGKOBiCGStab:  Solving for p, Initial residual = 133.957, Final residual = 0.0280559, No Iterations 499
time step continuity errors : sum local = 0.00172548, global = -7.44811e-05, cumulative = -7.44811e-05
smoothSolver:  Solving for nuTilda, Initial residual = 1, Final residual = 0.0685338, No Iterations 2
ExecutionTime = 42.11 s  ClockTime = 2 s

Time = 2

Gingko init_host_sparsity_pattern : 7 ms
 matrix not stored update host matrix 
Gingko update_host_mtx : 3 ms
matrix is not yet sorted,  sorting host matrix 
Gingko sort_host_mtx_sparsity_pattern : 5 ms
Gingko sort_host_mtx : 3 ms
Gingko init_preconditioner : 0 ms
 get_precond == NULL
Gingko solve : 418 ms
 copy back
 get iters 
noneompGKOBiCGStab:  Solving for Ux, Initial residual = 1, Final residual = 9.74469e-07, No Iterations 346
Gingko init_host_sparsity_pattern : 9 ms
 matrix not stored update host matrix 
Gingko update_host_mtx : 4 ms
matrix is not yet sorted,  sorting host matrix 
Gingko sort_host_mtx_sparsity_pattern : 5 ms
Gingko sort_host_mtx : 3 ms
Gingko init_preconditioner : 0 ms
 get_precond == NULL
Gingko solve : 429 ms
 copy back
 get iters 
noneompGKOBiCGStab:  Solving for Uy, Initial residual = 0.506877, Final residual = 8.08545e-07, No Iterations 360
Gingko init_preconditioner : 0 ms
 get_precond == NULL
Gingko solve : 595 ms
 copy back
 get iters 
noneompGKOBiCGStab:  Solving for p, Initial residual = 0.648383, Final residual = 0.010935, No Iterations 499
time step continuity errors : sum local = 0.00940542, global = 0.00305931, cumulative = 0.00298483
smoothSolver:  Solving for nuTilda, Initial residual = 0.118923, Final residual = 0.00537121, No Iterations 4
ExecutionTime = 88.75 s  ClockTime = 3 s

Time = 3

Gingko init_host_sparsity_pattern : 7 ms
 matrix not stored update host matrix 
Gingko update_host_mtx : 3 ms
matrix is not yet sorted,  sorting host matrix 
Gingko sort_host_mtx_sparsity_pattern : 5 ms
Gingko sort_host_mtx : 3 ms
Gingko init_preconditioner : 0 ms
 get_precond == NULL
Gingko solve : 320 ms
 copy back
 get iters 
noneompGKOBiCGStab:  Solving for Ux, Initial residual = 0.348168, Final residual = 8.69729e-07, No Iterations 267
Gingko init_host_sparsity_pattern : 9 ms
 matrix not stored update host matrix 
Gingko update_host_mtx : 5 ms
matrix is not yet sorted,  sorting host matrix 
Gingko sort_host_mtx_sparsity_pattern : 6 ms
Gingko sort_host_mtx : 3 ms
Gingko init_preconditioner : 0 ms
 get_precond == NULL
Gingko solve : 266 ms
 copy back
 get iters 
noneompGKOBiCGStab:  Solving for Uy, Initial residual = 0.320789, Final residual = 8.94363e-07, No Iterations 228
Gingko init_preconditioner : 0 ms
 get_precond == NULL
Gingko solve : 606 ms
 copy back
 get iters 
noneompGKOBiCGStab:  Solving for p, Initial residual = 0.250512, Final residual = 0.0117446, No Iterations 499
time step continuity errors : sum local = 0.0127332, global = 0.00456594, cumulative = 0.00755077
smoothSolver:  Solving for nuTilda, Initial residual = 0.116053, Final residual = 0.00511422, No Iterations 4
ExecutionTime = 127.56 s  ClockTime = 5 s

Time = 4

Gingko init_host_sparsity_pattern : 7 ms
 matrix not stored update host matrix 
Gingko update_host_mtx : 4 ms
matrix is not yet sorted,  sorting host matrix 
Gingko sort_host_mtx_sparsity_pattern : 5 ms
Gingko sort_host_mtx : 3 ms
Gingko init_preconditioner : 0 ms
 get_precond == NULL
Gingko solve : 388 ms
 copy back
 get iters 
noneompGKOBiCGStab:  Solving for Ux, Initial residual = 0.237414, Final residual = 9.96943e-07, No Iterations 335
Gingko init_host_sparsity_pattern : 9 ms
 matrix not stored update host matrix 
Gingko update_host_mtx : 3 ms
matrix is not yet sorted,  sorting host matrix 
Gingko sort_host_mtx_sparsity_pattern : 5 ms
Gingko sort_host_mtx : 3 ms
Gingko init_preconditioner : 0 ms
 get_precond == NULL
Gingko solve : 343 ms
 copy back
 get iters 
noneompGKOBiCGStab:  Solving for Uy, Initial residual = 0.236148, Final residual = 9.805e-07, No Iterations 297
Gingko init_preconditioner : 0 ms
 get_precond == NULL
Gingko solve : 621 ms
 copy back
 get iters 
noneompGKOBiCGStab:  Solving for p, Initial residual = 0.21327, Final residual = 0.00425555, No Iterations 499
time step continuity errors : sum local = 0.0137877, global = 0.00605739, cumulative = 0.0136082
smoothSolver:  Solving for nuTilda, Initial residual = 0.123031, Final residual = 0.00586276, No Iterations 4
bounding nuTilda, min: -0.213009 max: 0.353113 average: 0.139444
ExecutionTime = 171.35 s  ClockTime = 6 s

Time = 5

Gingko init_host_sparsity_pattern : 7 ms
 matrix not stored update host matrix 
Gingko update_host_mtx : 3 ms
matrix is not yet sorted,  sorting host matrix 
Gingko sort_host_mtx_sparsity_pattern : 5 ms
Gingko sort_host_mtx : 3 ms
Gingko init_preconditioner : 0 ms
 get_precond == NULL
Gingko solve : 577 ms
 copy back
 get iters 
noneompGKOBiCGStab:  Solving for Ux, Initial residual = 0.149089, Final residual = 1.05887e-06, No Iterations 499
Gingko init_host_sparsity_pattern : 9 ms
 matrix not stored update host matrix 
Gingko update_host_mtx : 4 ms
matrix is not yet sorted,  sorting host matrix 
Gingko sort_host_mtx_sparsity_pattern : 5 ms
Gingko sort_host_mtx : 3 ms
Gingko init_preconditioner : 0 ms
 get_precond == NULL
Gingko solve : 570 ms
 copy back
 get iters 
noneompGKOBiCGStab:  Solving for Uy, Initial residual = 0.207081, Final residual = 5.30695e-06, No Iterations 499
Gingko init_preconditioner : 0 ms
 get_precond == NULL
Gingko solve : 604 ms
 copy back
 get iters 
noneompGKOBiCGStab:  Solving for p, Initial residual = 0.225238, Final residual = 0.0143563, No Iterations 499
time step continuity errors : sum local = 36.0255, global = 0.00762199, cumulative = 0.0212302
smoothSolver:  Solving for nuTilda, Initial residual = 0.0062899, Final residual = 0.000192539, No Iterations 6
bounding nuTilda, min: -0.0055347 max: 0.44254 average: 0.139641
ExecutionTime = 227.85 s  ClockTime = 8 s

End

