/*---------------------------------------------------------------------------*\
  =========                 |
  \\      /  F ield         | OpenFOAM: The Open Source CFD Toolbox
   \\    /   O peration     | Website:  https://openfoam.org
    \\  /    A nd           | Version:  8
     \\/     M anipulation  |
\*---------------------------------------------------------------------------*/
Build  : 8-13d66902f78c
Exec   : simpleFoam
Date   : Jun 29 2021
Time   : 13:40:38
Host   : "uc2n377.localdomain"
PID    : 2557703
I/O    : uncollated
Case   : /pfs/data5/home/kit/scc/nq7776/code/OGL_DATA/airFoil2D/v0.1-119-gd926e8b/f584ccac99/IntelXeonGold6230CPU@2.10GHz/Test_2021-06-29-13:25:05/1/p-U-BiCGStab-GKO-BJ-omp/airFoil2D
nProcs : 1
sigFpe : Enabling floating point exception trapping (FOAM_SIGFPE).
fileModificationChecking : Monitoring run-time modified files using timeStampMaster (fileModificationSkew 10)
allowSystemOperations : Allowing user-supplied system call operations

// * * * * * * * * * * * * * * * * * * * * * * * * * * * * * * * * * * * * * //
Create time

Create mesh for time = 0


SIMPLE: Convergence criteria found
        p: tolerance 1e-05
        U: tolerance 1e-05
        nuTilda: tolerance 1e-05

Reading field p

Reading field U

Reading/calculating face flux field phi

Selecting incompressible transport model Newtonian
Selecting turbulence model type RAS
Selecting RAS turbulence model SpalartAllmaras
Selecting patchDistMethod meshWave
RAS
{
    model           SpalartAllmaras;
    turbulence      on;
    printCoeffs     on;
    sigmaNut        0.66666;
    kappa           0.41;
    Cb1             0.1355;
    Cb2             0.622;
    Cw2             0.3;
    Cw3             2;
    Cv1             7.1;
    Cs              0.3;
}

No MRF models present

No finite volume options present

Starting time loop

Time = 1

Gingko init_host_sparsity_pattern : 8 ms
 matrix not stored update host matrix 
Gingko update_host_mtx : 4 ms
matrix is not yet sorted, compute sorting idxs 
 compute sorting idxs 214288
Gingko compute_sort : 226 ms
matrix is not yet sorted,  sorting host matrix 
Gingko sort_host_mtx_sparsity_pattern : 5 ms
Gingko sort_host_mtx : 3 ms
Gingko init_preconditioner : 6 ms
Gingko solve : 159 ms
 copy back
 get iters 
BJompGKOBiCGStab:  Solving for Ux, Initial residual = -0, Final residual = 7.26213e-07, No Iterations 29
Gingko init_host_sparsity_pattern : 9 ms
 matrix not stored update host matrix 
Gingko update_host_mtx : 4 ms
matrix is not yet sorted,  sorting host matrix 
Gingko sort_host_mtx_sparsity_pattern : 5 ms
Gingko sort_host_mtx : 3 ms
Gingko init_preconditioner : 0 ms
Gingko solve : 47 ms
 copy back
 get iters 
BJompGKOBiCGStab:  Solving for Uy, Initial residual = 130.982, Final residual = 7.41617e-07, No Iterations 29
Gingko init_host_sparsity_pattern : 8 ms
 matrix not stored update host matrix 
Gingko update_host_mtx : 4 ms
matrix is not yet sorted,  sorting host matrix 
Gingko sort_host_mtx_sparsity_pattern : 5 ms
Gingko sort_host_mtx : 3 ms
Gingko init_preconditioner : 0 ms
Gingko solve : 863 ms
 copy back
 get iters 
BJompGKOBiCGStab:  Solving for p, Initial residual = 133.957, Final residual = 0.000445126, No Iterations 499
time step continuity errors : sum local = 2.77598e-05, global = -1.07743e-05, cumulative = -1.07743e-05
smoothSolver:  Solving for nuTilda, Initial residual = 1, Final residual = 0.0692533, No Iterations 2
ExecutionTime = 68.83 s  ClockTime = 2 s

Time = 2

Gingko init_host_sparsity_pattern : 7 ms
 matrix not stored update host matrix 
Gingko update_host_mtx : 3 ms
matrix is not yet sorted,  sorting host matrix 
Gingko sort_host_mtx_sparsity_pattern : 6 ms
Gingko sort_host_mtx : 3 ms
 found preconditioner 
Gingko init_preconditioner : 0 ms
Gingko solve : 71 ms
 copy back
 get iters 
BJompGKOBiCGStab:  Solving for Ux, Initial residual = 1, Final residual = 4.18857e-07, No Iterations 34
Gingko init_host_sparsity_pattern : 10 ms
 matrix not stored update host matrix 
Gingko update_host_mtx : 3 ms
matrix is not yet sorted,  sorting host matrix 
Gingko sort_host_mtx_sparsity_pattern : 5 ms
Gingko sort_host_mtx : 3 ms
 found preconditioner 
Gingko init_preconditioner : 0 ms
Gingko solve : 57 ms
 copy back
 get iters 
BJompGKOBiCGStab:  Solving for Uy, Initial residual = 0.547255, Final residual = 3.46634e-07, No Iterations 30
 found preconditioner 
Gingko init_preconditioner : 0 ms
Gingko solve : 882 ms
 copy back
 get iters 
BJompGKOBiCGStab:  Solving for p, Initial residual = 0.716119, Final residual = 4.29946e-05, No Iterations 499
time step continuity errors : sum local = 0.00859434, global = 0.004054, cumulative = 0.00404322
smoothSolver:  Solving for nuTilda, Initial residual = 0.124192, Final residual = 0.00551479, No Iterations 4
ExecutionTime = 134.53 s  ClockTime = 3 s

Time = 3

Gingko init_host_sparsity_pattern : 7 ms
 matrix not stored update host matrix 
Gingko update_host_mtx : 3 ms
matrix is not yet sorted,  sorting host matrix 
Gingko sort_host_mtx_sparsity_pattern : 5 ms
Gingko sort_host_mtx : 3 ms
 found preconditioner 
Gingko init_preconditioner : 0 ms
Gingko solve : 46 ms
 copy back
 get iters 
BJompGKOBiCGStab:  Solving for Ux, Initial residual = 0.174792, Final residual = 7.86383e-07, No Iterations 26
Gingko init_host_sparsity_pattern : 10 ms
 matrix not stored update host matrix 
Gingko update_host_mtx : 3 ms
matrix is not yet sorted,  sorting host matrix 
Gingko sort_host_mtx_sparsity_pattern : 5 ms
Gingko sort_host_mtx : 3 ms
 found preconditioner 
Gingko init_preconditioner : 0 ms
Gingko solve : 37 ms
 copy back
 get iters 
BJompGKOBiCGStab:  Solving for Uy, Initial residual = 0.279434, Final residual = 8.94529e-07, No Iterations 21
 found preconditioner 
Gingko init_preconditioner : 0 ms
Gingko solve : 844 ms
 copy back
 get iters 
BJompGKOBiCGStab:  Solving for p, Initial residual = 0.215226, Final residual = 3.45791e-05, No Iterations 499
time step continuity errors : sum local = 0.0116832, global = 0.00535301, cumulative = 0.00939623
smoothSolver:  Solving for nuTilda, Initial residual = 0.119546, Final residual = 0.00522763, No Iterations 4
ExecutionTime = 195 s  ClockTime = 4 s

Time = 4

Gingko init_host_sparsity_pattern : 7 ms
 matrix not stored update host matrix 
Gingko update_host_mtx : 3 ms
matrix is not yet sorted,  sorting host matrix 
Gingko sort_host_mtx_sparsity_pattern : 5 ms
Gingko sort_host_mtx : 3 ms
 found preconditioner 
Gingko init_preconditioner : 0 ms
Gingko solve : 51 ms
 copy back
 get iters 
BJompGKOBiCGStab:  Solving for Ux, Initial residual = 0.146252, Final residual = 8.51141e-07, No Iterations 29
Gingko init_host_sparsity_pattern : 10 ms
 matrix not stored update host matrix 
Gingko update_host_mtx : 3 ms
matrix is not yet sorted,  sorting host matrix 
Gingko sort_host_mtx_sparsity_pattern : 5 ms
Gingko sort_host_mtx : 3 ms
 found preconditioner 
Gingko init_preconditioner : 0 ms
Gingko solve : 54 ms
 copy back
 get iters 
BJompGKOBiCGStab:  Solving for Uy, Initial residual = 0.225953, Final residual = 7.8063e-07, No Iterations 30
 found preconditioner 
Gingko init_preconditioner : 0 ms
Gingko solve : 855 ms
 copy back
 get iters 
BJompGKOBiCGStab:  Solving for p, Initial residual = 0.170655, Final residual = 0.000350714, No Iterations 499
time step continuity errors : sum local = 0.0129715, global = 0.00522303, cumulative = 0.0146193
smoothSolver:  Solving for nuTilda, Initial residual = 0.125635, Final residual = 0.00567064, No Iterations 4
bounding nuTilda, min: -0.105694 max: 0.349795 average: 0.139475
ExecutionTime = 257.55 s  ClockTime = 5 s

Time = 5

Gingko init_host_sparsity_pattern : 8 ms
 matrix not stored update host matrix 
Gingko update_host_mtx : 4 ms
matrix is not yet sorted,  sorting host matrix 
Gingko sort_host_mtx_sparsity_pattern : 5 ms
Gingko sort_host_mtx : 3 ms
 found preconditioner 
Gingko init_preconditioner : 0 ms
Gingko solve : 78 ms
 copy back
 get iters 
BJompGKOBiCGStab:  Solving for Ux, Initial residual = 0.268839, Final residual = 7.81595e-07, No Iterations 44
Gingko init_host_sparsity_pattern : 10 ms
 matrix not stored update host matrix 
Gingko update_host_mtx : 3 ms
matrix is not yet sorted,  sorting host matrix 
Gingko sort_host_mtx_sparsity_pattern : 5 ms
Gingko sort_host_mtx : 3 ms
 found preconditioner 
Gingko init_preconditioner : 0 ms
Gingko solve : 74 ms
 copy back
 get iters 
BJompGKOBiCGStab:  Solving for Uy, Initial residual = 0.217195, Final residual = 9.59805e-07, No Iterations 41
 found preconditioner 
Gingko init_preconditioner : 0 ms
Gingko solve : 854 ms
 copy back
 get iters 
BJompGKOBiCGStab:  Solving for p, Initial residual = 0.159594, Final residual = 0.00010787, No Iterations 499
time step continuity errors : sum local = 1.66907, global = 0.00573181, cumulative = 0.0203511
smoothSolver:  Solving for nuTilda, Initial residual = 0.0527113, Final residual = 0.00302215, No Iterations 22
ExecutionTime = 323.1 s  ClockTime = 6 s

End

