/*---------------------------------------------------------------------------*\
  =========                 |
  \\      /  F ield         | OpenFOAM: The Open Source CFD Toolbox
   \\    /   O peration     | Website:  https://openfoam.org
    \\  /    A nd           | Version:  8
     \\/     M anipulation  |
\*---------------------------------------------------------------------------*/
Build  : 8-13d66902f78c
Exec   : icoFoam
Date   : Jul 04 2021
Time   : 08:32:12
Host   : "uc2n420.localdomain"
PID    : 1125040
I/O    : uncollated
Case   : /pfs/data5/home/kit/scc/nq7776/code/OGL_DATA/lidDrivenCavity3D/v0.1-136-g40fef35/f584ccac99/IntelXeonGold6230CPU@2.10GHz/Test_2021-07-04-07:18:41/100/p-BiCGStab-GKO-none-omp/lidDrivenCavity3D
nProcs : 1
sigFpe : Enabling floating point exception trapping (FOAM_SIGFPE).
fileModificationChecking : Monitoring run-time modified files using timeStampMaster (fileModificationSkew 10)
allowSystemOperations : Allowing user-supplied system call operations

// * * * * * * * * * * * * * * * * * * * * * * * * * * * * * * * * * * * * * //
Create time

Create mesh for time = 0

Reading transportProperties

Reading field p

Reading field U

Reading/calculating face flux field phi


Starting time loop

Time = 0.001

Courant Number mean: 0 max: 0
nonePBiCGStab:  Solving for Ux, Initial residual = 1, Final residual = 0.0818707, No Iterations 5
nonePBiCGStab:  Solving for Uy, Initial residual = 0, Final residual = 0, No Iterations 0
nonePBiCGStab:  Solving for Uz, Initial residual = 0, Final residual = 0, No Iterations 0
[OGL LOG] init_host_sparsity_pattern : 287 ms
[OGL LOG] matrix not stored update host matrix
[OGL LOG] update_host_mtx : 149 ms
[OGL LOG] matrix is not yet sorted, compute sorting idxs
[OGL LOG] compute_sort : 9051 ms
[OGL LOG] matrix is not yet sorted, sorting host matrix
[OGL LOG] sort_host_mtx_sparsity_pattern : 192 ms
[OGL LOG] sort_host_mtx : 124 ms
[OGL LOG] init_preconditioner : 0 ms
[OGL LOG] solve : 46075 ms
noneompGKOBiCGStab:  Solving for p, Initial residual = 1, Final residual = 6.25113e-07, No Iterations 713
time step continuity errors : sum local = 4.73137e-10, global = -2.28128e-20, cumulative = -2.28128e-20
[OGL LOG] init_preconditioner : 0 ms
[OGL LOG] solve : 46006 ms
noneompGKOBiCGStab:  Solving for p, Initial residual = 0.707487, Final residual = 6.43864e-07, No Iterations 679
time step continuity errors : sum local = 5.75713e-09, global = -1.87939e-21, cumulative = -2.46922e-20
ExecutionTime = 106.49 s  ClockTime = 106 s

Time = 0.002

Courant Number mean: 0.0422155 max: 0.791725
nonePBiCGStab:  Solving for Ux, Initial residual = 0.137872, Final residual = 0.0400113, No Iterations 5
nonePBiCGStab:  Solving for Uy, Initial residual = 0.451742, Final residual = 0.130143, No Iterations 5
nonePBiCGStab:  Solving for Uz, Initial residual = 0.987376, Final residual = 0.323481, No Iterations 5
[OGL LOG] init_preconditioner : 0 ms
[OGL LOG] solve : 45364 ms
noneompGKOBiCGStab:  Solving for p, Initial residual = 0.789691, Final residual = 8.26752e-07, No Iterations 702
time step continuity errors : sum local = 1.72207e-08, global = 1.75012e-21, cumulative = -2.29421e-20
[OGL LOG] init_preconditioner : 0 ms
[OGL LOG] solve : 49647 ms
noneompGKOBiCGStab:  Solving for p, Initial residual = 0.713539, Final residual = 1.10345e-07, No Iterations 765
time step continuity errors : sum local = 4.08094e-09, global = -6.58586e-23, cumulative = -2.3008e-20
ExecutionTime = 202.49 s  ClockTime = 203 s

Time = 0.003

Courant Number mean: 0.0674675 max: 0.89998
nonePBiCGStab:  Solving for Ux, Initial residual = 0.0610458, Final residual = 0.0152929, No Iterations 5
nonePBiCGStab:  Solving for Uy, Initial residual = 0.20882, Final residual = 0.0594584, No Iterations 5
nonePBiCGStab:  Solving for Uz, Initial residual = 0.710999, Final residual = 0.212664, No Iterations 5
[OGL LOG] init_preconditioner : 0 ms
[OGL LOG] solve : 51615 ms
noneompGKOBiCGStab:  Solving for p, Initial residual = 0.797102, Final residual = 8.01047e-07, No Iterations 800
time step continuity errors : sum local = 5.67776e-09, global = 1.1537e-20, cumulative = -1.1471e-20
[OGL LOG] init_preconditioner : 0 ms
[OGL LOG] solve : 43573 ms
noneompGKOBiCGStab:  Solving for p, Initial residual = 0.724937, Final residual = 6.89288e-07, No Iterations 674
time step continuity errors : sum local = 6.64466e-09, global = 6.37366e-21, cumulative = -5.09729e-21
ExecutionTime = 298.55 s  ClockTime = 299 s

Time = 0.004

Courant Number mean: 0.0814732 max: 0.912889
nonePBiCGStab:  Solving for Ux, Initial residual = 0.0387949, Final residual = 0.0107305, No Iterations 5
nonePBiCGStab:  Solving for Uy, Initial residual = 0.148963, Final residual = 0.0501901, No Iterations 5
nonePBiCGStab:  Solving for Uz, Initial residual = 0.491902, Final residual = 0.134419, No Iterations 5
[OGL LOG] init_preconditioner : 0 ms
[OGL LOG] solve : 42092 ms
noneompGKOBiCGStab:  Solving for p, Initial residual = 0.719503, Final residual = 9.87654e-07, No Iterations 652
time step continuity errors : sum local = 1.9862e-08, global = 1.06078e-21, cumulative = -4.03652e-21
[OGL LOG] init_preconditioner : 0 ms
[OGL LOG] solve : 43533 ms
noneompGKOBiCGStab:  Solving for p, Initial residual = 0.61988, Final residual = 7.17946e-07, No Iterations 675
time step continuity errors : sum local = 1.06528e-08, global = -5.90862e-21, cumulative = -9.94514e-21
ExecutionTime = 385.13 s  ClockTime = 386 s

Time = 0.005

Courant Number mean: 0.0922787 max: 0.925558
nonePBiCGStab:  Solving for Ux, Initial residual = 0.0297979, Final residual = 0.00895191, No Iterations 5
nonePBiCGStab:  Solving for Uy, Initial residual = 0.0988011, Final residual = 0.035878, No Iterations 5
nonePBiCGStab:  Solving for Uz, Initial residual = 0.30946, Final residual = 0.0809982, No Iterations 5
[OGL LOG] init_preconditioner : 0 ms
[OGL LOG] solve : 38725 ms
noneompGKOBiCGStab:  Solving for p, Initial residual = 0.757217, Final residual = 7.66118e-07, No Iterations 601
time step continuity errors : sum local = 1.43403e-08, global = 5.26609e-21, cumulative = -4.67905e-21
[OGL LOG] init_preconditioner : 0 ms
[OGL LOG] solve : 47149 ms
noneompGKOBiCGStab:  Solving for p, Initial residual = 0.670907, Final residual = 9.78282e-07, No Iterations 731
time step continuity errors : sum local = 9.3959e-10, global = 3.99271e-21, cumulative = -6.86342e-22
ExecutionTime = 471.97 s  ClockTime = 473 s

End

