/*---------------------------------------------------------------------------*\
  =========                 |
  \\      /  F ield         | OpenFOAM: The Open Source CFD Toolbox
   \\    /   O peration     | Website:  https://openfoam.org
    \\  /    A nd           | Version:  8
     \\/     M anipulation  |
\*---------------------------------------------------------------------------*/
Build  : 8-13d66902f78c
Exec   : icoFoam
Date   : Jul 04 2021
Time   : 08:22:59
Host   : "uc2n420.localdomain"
PID    : 1124149
I/O    : uncollated
Case   : /pfs/data5/home/kit/scc/nq7776/code/OGL_DATA/lidDrivenCavity3D/v0.1-136-g40fef35/f584ccac99/IntelXeonGold6230CPU@2.10GHz/Test_2021-07-04-07:18:41/75/p-BiCGStab-GKO-none-omp/lidDrivenCavity3D
nProcs : 1
sigFpe : Enabling floating point exception trapping (FOAM_SIGFPE).
fileModificationChecking : Monitoring run-time modified files using timeStampMaster (fileModificationSkew 10)
allowSystemOperations : Allowing user-supplied system call operations

// * * * * * * * * * * * * * * * * * * * * * * * * * * * * * * * * * * * * * //
Create time

Create mesh for time = 0

Reading transportProperties

Reading field p

Reading field U

Reading/calculating face flux field phi


Starting time loop

Time = 0.00133333

Courant Number mean: 0 max: 0
nonePBiCGStab:  Solving for Ux, Initial residual = 1, Final residual = 0.0730231, No Iterations 5
nonePBiCGStab:  Solving for Uy, Initial residual = 0, Final residual = 0, No Iterations 0
nonePBiCGStab:  Solving for Uz, Initial residual = 0, Final residual = 0, No Iterations 0
[OGL LOG] init_host_sparsity_pattern : 123 ms
[OGL LOG] matrix not stored update host matrix
[OGL LOG] update_host_mtx : 62 ms
[OGL LOG] matrix is not yet sorted, compute sorting idxs
[OGL LOG] compute_sort : 3660 ms
[OGL LOG] matrix is not yet sorted, sorting host matrix
[OGL LOG] sort_host_mtx_sparsity_pattern : 81 ms
[OGL LOG] sort_host_mtx : 52 ms
[OGL LOG] init_preconditioner : 0 ms
[OGL LOG] solve : 6118 ms
noneompGKOBiCGStab:  Solving for p, Initial residual = 1, Final residual = 9.08386e-07, No Iterations 522
time step continuity errors : sum local = 1.11903e-09, global = -2.02615e-21, cumulative = -2.02615e-21
[OGL LOG] init_preconditioner : 0 ms
[OGL LOG] solve : 5692 ms
noneompGKOBiCGStab:  Solving for p, Initial residual = 0.697109, Final residual = 9.05543e-07, No Iterations 527
time step continuity errors : sum local = 5.54339e-09, global = -7.06739e-21, cumulative = -9.09354e-21
ExecutionTime = 759.93 s  ClockTime = 18 s

Time = 0.00266667

Courant Number mean: 0.0508075 max: 0.767232
nonePBiCGStab:  Solving for Ux, Initial residual = 0.140594, Final residual = 0.0324538, No Iterations 5
nonePBiCGStab:  Solving for Uy, Initial residual = 0.413642, Final residual = 0.0923281, No Iterations 5
nonePBiCGStab:  Solving for Uz, Initial residual = 0.983173, Final residual = 0.249899, No Iterations 5
[OGL LOG] init_preconditioner : 0 ms
[OGL LOG] solve : 6439 ms
noneompGKOBiCGStab:  Solving for p, Initial residual = 0.746892, Final residual = 2.13773e-07, No Iterations 534
time step continuity errors : sum local = 1.0651e-07, global = 5.97165e-21, cumulative = -3.12189e-21
[OGL LOG] init_preconditioner : 0 ms
[OGL LOG] solve : 5683 ms
noneompGKOBiCGStab:  Solving for p, Initial residual = 0.668142, Final residual = 9.99181e-07, No Iterations 538
time step continuity errors : sum local = 5.36793e-09, global = -4.51533e-21, cumulative = -7.63722e-21
ExecutionTime = 1534.38 s  ClockTime = 31 s

Time = 0.004

Courant Number mean: 0.0796134 max: 0.886021
nonePBiCGStab:  Solving for Ux, Initial residual = 0.0584456, Final residual = 0.0111475, No Iterations 5
nonePBiCGStab:  Solving for Uy, Initial residual = 0.171979, Final residual = 0.0398961, No Iterations 5
nonePBiCGStab:  Solving for Uz, Initial residual = 0.610354, Final residual = 0.142259, No Iterations 5
[OGL LOG] init_preconditioner : 0 ms
[OGL LOG] solve : 6281 ms
noneompGKOBiCGStab:  Solving for p, Initial residual = 0.730363, Final residual = 9.98505e-07, No Iterations 519
time step continuity errors : sum local = 1.03217e-07, global = -3.90703e-21, cumulative = -1.15442e-20
[OGL LOG] init_preconditioner : 0 ms
[OGL LOG] solve : 6715 ms
noneompGKOBiCGStab:  Solving for p, Initial residual = 0.660912, Final residual = 7.27673e-07, No Iterations 562
time step continuity errors : sum local = 1.07986e-07, global = 9.42279e-22, cumulative = -1.0602e-20
ExecutionTime = 2364.1 s  ClockTime = 44 s

Time = 0.00533333

Courant Number mean: 0.0948102 max: 0.902546
nonePBiCGStab:  Solving for Ux, Initial residual = 0.0345945, Final residual = 0.00683044, No Iterations 5
nonePBiCGStab:  Solving for Uy, Initial residual = 0.119552, Final residual = 0.029833, No Iterations 5
nonePBiCGStab:  Solving for Uz, Initial residual = 0.385887, Final residual = 0.0813802, No Iterations 5
[OGL LOG] init_preconditioner : 0 ms
[OGL LOG] solve : 6354 ms
noneompGKOBiCGStab:  Solving for p, Initial residual = 0.60984, Final residual = 1.81822e-07, No Iterations 547
time step continuity errors : sum local = 8.44539e-08, global = -1.76492e-21, cumulative = -1.23669e-20
[OGL LOG] init_preconditioner : 0 ms
[OGL LOG] solve : 6210 ms
noneompGKOBiCGStab:  Solving for p, Initial residual = 0.521175, Final residual = 7.35274e-07, No Iterations 534
time step continuity errors : sum local = 4.44788e-08, global = 1.08285e-20, cumulative = -1.53836e-21
ExecutionTime = 3166.52 s  ClockTime = 57 s

Time = 0.00666667

Courant Number mean: 0.107176 max: 0.916756
nonePBiCGStab:  Solving for Ux, Initial residual = 0.0257344, Final residual = 0.00503247, No Iterations 5
nonePBiCGStab:  Solving for Uy, Initial residual = 0.075049, Final residual = 0.0208434, No Iterations 5
nonePBiCGStab:  Solving for Uz, Initial residual = 0.212942, Final residual = 0.0500101, No Iterations 5
[OGL LOG] init_preconditioner : 0 ms
[OGL LOG] solve : 5413 ms
noneompGKOBiCGStab:  Solving for p, Initial residual = 0.629311, Final residual = 3.73825e-07, No Iterations 466
time step continuity errors : sum local = 6.55088e-08, global = 8.40023e-22, cumulative = -6.98341e-22
[OGL LOG] init_preconditioner : 0 ms
[OGL LOG] solve : 5541 ms
noneompGKOBiCGStab:  Solving for p, Initial residual = 0.552181, Final residual = 8.38073e-07, No Iterations 475
time step continuity errors : sum local = 1.06923e-08, global = 2.08202e-20, cumulative = 2.01219e-20
ExecutionTime = 3866.21 s  ClockTime = 69 s

End

