/*---------------------------------------------------------------------------*\
  =========                 |
  \\      /  F ield         | OpenFOAM: The Open Source CFD Toolbox
   \\    /   O peration     | Website:  https://openfoam.org
    \\  /    A nd           | Version:  8
     \\/     M anipulation  |
\*---------------------------------------------------------------------------*/
Build  : 8-13d66902f78c
Exec   : icoFoam
Date   : Jul 04 2021
Time   : 07:24:21
Host   : "uc2n420.localdomain"
PID    : 1115614
I/O    : uncollated
Case   : /pfs/data5/home/kit/scc/nq7776/code/OGL_DATA/lidDrivenCavity3D/v0.1-136-g40fef35/f584ccac99/IntelXeonGold6230CPU@2.10GHz/Test_2021-07-04-07:18:41/25/p-BiCGStab-GKO-none-omp/lidDrivenCavity3D
nProcs : 1
sigFpe : Enabling floating point exception trapping (FOAM_SIGFPE).
fileModificationChecking : Monitoring run-time modified files using timeStampMaster (fileModificationSkew 10)
allowSystemOperations : Allowing user-supplied system call operations

// * * * * * * * * * * * * * * * * * * * * * * * * * * * * * * * * * * * * * //
Create time

Create mesh for time = 0

Reading transportProperties

Reading field p

Reading field U

Reading/calculating face flux field phi


Starting time loop

Time = 0.004

Courant Number mean: 0 max: 0
nonePBiCGStab:  Solving for Ux, Initial residual = 1, Final residual = 0.0337517, No Iterations 5
nonePBiCGStab:  Solving for Uy, Initial residual = 0, Final residual = 0, No Iterations 0
nonePBiCGStab:  Solving for Uz, Initial residual = 0, Final residual = 0, No Iterations 0
[OGL LOG] init_host_sparsity_pattern : 4 ms
[OGL LOG] matrix not stored update host matrix
[OGL LOG] update_host_mtx : 2 ms
[OGL LOG] matrix is not yet sorted, compute sorting idxs
[OGL LOG] compute_sort : 106 ms
[OGL LOG] matrix is not yet sorted, sorting host matrix
[OGL LOG] sort_host_mtx_sparsity_pattern : 2 ms
[OGL LOG] sort_host_mtx : 1 ms
[OGL LOG] init_preconditioner : 0 ms
[OGL LOG] solve : 111 ms
noneompGKOBiCGStab:  Solving for p, Initial residual = 1, Final residual = 4.91817e-07, No Iterations 170
time step continuity errors : sum local = 2.88949e-09, global = -1.72416e-20, cumulative = -1.72416e-20
[OGL LOG] init_preconditioner : 0 ms
[OGL LOG] solve : 111 ms
noneompGKOBiCGStab:  Solving for p, Initial residual = 0.622285, Final residual = 9.69552e-07, No Iterations 170
time step continuity errors : sum local = 5.05295e-08, global = -6.87734e-20, cumulative = -8.6015e-20
ExecutionTime = 7.76 s  ClockTime = 0 s

Time = 0.008

Courant Number mean: 0.084228 max: 0.621061
nonePBiCGStab:  Solving for Ux, Initial residual = 0.149589, Final residual = 0.00942688, No Iterations 5
nonePBiCGStab:  Solving for Uy, Initial residual = 0.281195, Final residual = 0.0142202, No Iterations 5
nonePBiCGStab:  Solving for Uz, Initial residual = 0.933271, Final residual = 0.0511097, No Iterations 5
[OGL LOG] init_preconditioner : 0 ms
[OGL LOG] solve : 112 ms
noneompGKOBiCGStab:  Solving for p, Initial residual = 0.518043, Final residual = 8.62776e-07, No Iterations 169
time step continuity errors : sum local = 9.85537e-08, global = -4.96948e-20, cumulative = -1.3571e-19
[OGL LOG] init_preconditioner : 0 ms
[OGL LOG] solve : 111 ms
noneompGKOBiCGStab:  Solving for p, Initial residual = 0.415901, Final residual = 5.85423e-07, No Iterations 168
time step continuity errors : sum local = 4.12027e-07, global = 8.51934e-20, cumulative = -5.05164e-20
ExecutionTime = 15.16 s  ClockTime = 0 s

Time = 0.012

Courant Number mean: 0.124051 max: 0.792234
nonePBiCGStab:  Solving for Ux, Initial residual = 0.0424966, Final residual = 0.00204615, No Iterations 5
nonePBiCGStab:  Solving for Uy, Initial residual = 0.0761545, Final residual = 0.00263685, No Iterations 5
nonePBiCGStab:  Solving for Uz, Initial residual = 0.142753, Final residual = 0.00668535, No Iterations 5
[OGL LOG] init_preconditioner : 0 ms
[OGL LOG] solve : 113 ms
noneompGKOBiCGStab:  Solving for p, Initial residual = 0.279237, Final residual = 6.77622e-07, No Iterations 171
time step continuity errors : sum local = 1.93862e-07, global = 7.16726e-21, cumulative = -4.33492e-20
[OGL LOG] init_preconditioner : 0 ms
[OGL LOG] solve : 104 ms
noneompGKOBiCGStab:  Solving for p, Initial residual = 0.224053, Final residual = 8.02588e-07, No Iterations 157
time step continuity errors : sum local = 2.48017e-08, global = -9.50105e-20, cumulative = -1.3836e-19
ExecutionTime = 22.38 s  ClockTime = 1 s

Time = 0.016

Courant Number mean: 0.142529 max: 0.824384
nonePBiCGStab:  Solving for Ux, Initial residual = 0.0219013, Final residual = 0.000753497, No Iterations 5
nonePBiCGStab:  Solving for Uy, Initial residual = 0.0474744, Final residual = 0.000977202, No Iterations 5
nonePBiCGStab:  Solving for Uz, Initial residual = 0.0926881, Final residual = 0.00340823, No Iterations 5
[OGL LOG] init_preconditioner : 0 ms
[OGL LOG] solve : 108 ms
noneompGKOBiCGStab:  Solving for p, Initial residual = 0.138554, Final residual = 6.73952e-07, No Iterations 164
time step continuity errors : sum local = 3.3106e-08, global = -1.96941e-19, cumulative = -3.35301e-19
[OGL LOG] init_preconditioner : 0 ms
[OGL LOG] solve : 108 ms
noneompGKOBiCGStab:  Solving for p, Initial residual = 0.106567, Final residual = 6.49285e-07, No Iterations 164
time step continuity errors : sum local = 9.03486e-08, global = -2.85772e-20, cumulative = -3.63878e-19
ExecutionTime = 29.6 s  ClockTime = 1 s

Time = 0.02

Courant Number mean: 0.154856 max: 0.843613
nonePBiCGStab:  Solving for Ux, Initial residual = 0.0136621, Final residual = 0.000404528, No Iterations 5
nonePBiCGStab:  Solving for Uy, Initial residual = 0.0288074, Final residual = 0.000725474, No Iterations 5
nonePBiCGStab:  Solving for Uz, Initial residual = 0.0552439, Final residual = 0.00177284, No Iterations 5
[OGL LOG] init_preconditioner : 0 ms
[OGL LOG] solve : 101 ms
noneompGKOBiCGStab:  Solving for p, Initial residual = 0.0654319, Final residual = 8.61e-07, No Iterations 153
time step continuity errors : sum local = 1.42862e-07, global = 2.72548e-20, cumulative = -3.36623e-19
[OGL LOG] init_preconditioner : 0 ms
[OGL LOG] solve : 94 ms
noneompGKOBiCGStab:  Solving for p, Initial residual = 0.0510982, Final residual = 9.93654e-07, No Iterations 153
time step continuity errors : sum local = 1.9991e-06, global = -1.42183e-19, cumulative = -4.78806e-19
ExecutionTime = 36.19 s  ClockTime = 1 s

End

