/*---------------------------------------------------------------------------*\
  =========                 |
  \\      /  F ield         | OpenFOAM: The Open Source CFD Toolbox
   \\    /   O peration     | Website:  https://openfoam.org
    \\  /    A nd           | Version:  8
     \\/     M anipulation  |
\*---------------------------------------------------------------------------*/
Build  : 8-13d66902f78c
Exec   : icoFoam
Date   : Jul 04 2021
Time   : 07:50:58
Host   : "uc2n420.localdomain"
PID    : 1121648
I/O    : uncollated
Case   : /pfs/data5/home/kit/scc/nq7776/code/OGL_DATA/lidDrivenCavity3D/v0.1-136-g40fef35/f584ccac99/IntelXeonGold6230CPU@2.10GHz/Test_2021-07-04-07:18:41/75/p-BiCGStab-GKO-none-omp/lidDrivenCavity3D
nProcs : 1
sigFpe : Enabling floating point exception trapping (FOAM_SIGFPE).
fileModificationChecking : Monitoring run-time modified files using timeStampMaster (fileModificationSkew 10)
allowSystemOperations : Allowing user-supplied system call operations

// * * * * * * * * * * * * * * * * * * * * * * * * * * * * * * * * * * * * * //
Create time

Create mesh for time = 0

Reading transportProperties

Reading field p

Reading field U

Reading/calculating face flux field phi


Starting time loop

Time = 0.00133333

Courant Number mean: 0 max: 0
nonePBiCGStab:  Solving for Ux, Initial residual = 1, Final residual = 0.0730231, No Iterations 5
nonePBiCGStab:  Solving for Uy, Initial residual = 0, Final residual = 0, No Iterations 0
nonePBiCGStab:  Solving for Uz, Initial residual = 0, Final residual = 0, No Iterations 0
[OGL LOG] init_host_sparsity_pattern : 124 ms
[OGL LOG] matrix not stored update host matrix
[OGL LOG] update_host_mtx : 62 ms
[OGL LOG] matrix is not yet sorted, compute sorting idxs
[OGL LOG] compute_sort : 3774 ms
[OGL LOG] matrix is not yet sorted, sorting host matrix
[OGL LOG] sort_host_mtx_sparsity_pattern : 81 ms
[OGL LOG] sort_host_mtx : 52 ms
[OGL LOG] init_preconditioner : 0 ms
[OGL LOG] solve : 8533 ms
noneompGKOBiCGStab:  Solving for p, Initial residual = 1, Final residual = 9.08386e-07, No Iterations 522
time step continuity errors : sum local = 1.11903e-09, global = -2.02615e-21, cumulative = -2.02615e-21
[OGL LOG] init_preconditioner : 0 ms
[OGL LOG] solve : 8633 ms
noneompGKOBiCGStab:  Solving for p, Initial residual = 0.697109, Final residual = 9.05543e-07, No Iterations 527
time step continuity errors : sum local = 2.45932e-09, global = -7.05994e-21, cumulative = -9.0861e-21
ExecutionTime = 40.56 s  ClockTime = 23 s

Time = 0.00266667

Courant Number mean: 0.0508075 max: 0.767232
nonePBiCGStab:  Solving for Ux, Initial residual = 0.140594, Final residual = 0.0324538, No Iterations 5
nonePBiCGStab:  Solving for Uy, Initial residual = 0.413642, Final residual = 0.0923282, No Iterations 5
nonePBiCGStab:  Solving for Uz, Initial residual = 0.983182, Final residual = 0.249897, No Iterations 5
[OGL LOG] init_preconditioner : 0 ms
[OGL LOG] solve : 8747 ms
noneompGKOBiCGStab:  Solving for p, Initial residual = 0.746894, Final residual = 1.7325e-08, No Iterations 527
time step continuity errors : sum local = 7.25112e-08, global = 1.08798e-20, cumulative = 1.79373e-21
[OGL LOG] init_preconditioner : 0 ms
[OGL LOG] solve : 9569 ms
noneompGKOBiCGStab:  Solving for p, Initial residual = 0.668127, Final residual = 8.762e-07, No Iterations 592
time step continuity errors : sum local = 8.52201e-09, global = 3.67854e-21, cumulative = 5.47228e-21
ExecutionTime = 77.65 s  ClockTime = 42 s

Time = 0.004

Courant Number mean: 0.0796134 max: 0.886021
nonePBiCGStab:  Solving for Ux, Initial residual = 0.0584541, Final residual = 0.01115, No Iterations 5
nonePBiCGStab:  Solving for Uy, Initial residual = 0.171943, Final residual = 0.039882, No Iterations 5
nonePBiCGStab:  Solving for Uz, Initial residual = 0.611225, Final residual = 0.142799, No Iterations 5
[OGL LOG] init_preconditioner : 0 ms
[OGL LOG] solve : 8686 ms
noneompGKOBiCGStab:  Solving for p, Initial residual = 0.730372, Final residual = 9.40972e-07, No Iterations 524
time step continuity errors : sum local = 1.48223e-08, global = -2.73305e-21, cumulative = 2.73922e-21
[OGL LOG] init_preconditioner : 0 ms
[OGL LOG] solve : 9287 ms
noneompGKOBiCGStab:  Solving for p, Initial residual = 0.660908, Final residual = 9.16318e-07, No Iterations 563
time step continuity errors : sum local = 7.70828e-09, global = -5.18216e-21, cumulative = -2.44294e-21
ExecutionTime = 114 s  ClockTime = 61 s

Time = 0.00533333

Courant Number mean: 0.0948105 max: 0.902547
nonePBiCGStab:  Solving for Ux, Initial residual = 0.0345918, Final residual = 0.00682759, No Iterations 5
nonePBiCGStab:  Solving for Uy, Initial residual = 0.119561, Final residual = 0.029828, No Iterations 5
nonePBiCGStab:  Solving for Uz, Initial residual = 0.386873, Final residual = 0.0807901, No Iterations 5
[OGL LOG] init_preconditioner : 0 ms
[OGL LOG] solve : 8824 ms
noneompGKOBiCGStab:  Solving for p, Initial residual = 0.609828, Final residual = 9.99272e-07, No Iterations 531
time step continuity errors : sum local = 1.09508e-08, global = 5.28979e-21, cumulative = 2.84685e-21
[OGL LOG] init_preconditioner : 0 ms
[OGL LOG] solve : 8498 ms
noneompGKOBiCGStab:  Solving for p, Initial residual = 0.52112, Final residual = 9.34388e-07, No Iterations 522
time step continuity errors : sum local = 1.34062e-08, global = 2.95538e-21, cumulative = 5.80223e-21
ExecutionTime = 149.07 s  ClockTime = 78 s

Time = 0.00666667

Courant Number mean: 0.107177 max: 0.916756
nonePBiCGStab:  Solving for Ux, Initial residual = 0.0257401, Final residual = 0.00503314, No Iterations 5
nonePBiCGStab:  Solving for Uy, Initial residual = 0.0750398, Final residual = 0.0208208, No Iterations 5
nonePBiCGStab:  Solving for Uz, Initial residual = 0.21371, Final residual = 0.0498721, No Iterations 5
[OGL LOG] init_preconditioner : 0 ms
[OGL LOG] solve : 8455 ms
noneompGKOBiCGStab:  Solving for p, Initial residual = 0.629337, Final residual = 9.97553e-07, No Iterations 517
time step continuity errors : sum local = 2.11861e-09, global = 1.49508e-20, cumulative = 2.07531e-20
[OGL LOG] init_preconditioner : 0 ms
[OGL LOG] solve : 8852 ms
noneompGKOBiCGStab:  Solving for p, Initial residual = 0.552155, Final residual = 9.6183e-07, No Iterations 544
time step continuity errors : sum local = 1.06975e-09, global = 5.9808e-21, cumulative = 2.67339e-20
ExecutionTime = 184.09 s  ClockTime = 96 s

End

