/*---------------------------------------------------------------------------*\
  =========                 |
  \\      /  F ield         | OpenFOAM: The Open Source CFD Toolbox
   \\    /   O peration     | Website:  https://openfoam.org
    \\  /    A nd           | Version:  8
     \\/     M anipulation  |
\*---------------------------------------------------------------------------*/
Build  : 8-13d66902f78c
Exec   : icoFoam
Date   : Jul 04 2021
Time   : 08:58:01
Host   : "uc2n415.localdomain"
PID    : 2608012
I/O    : uncollated
Case   : /pfs/data5/home/kit/scc/nq7776/code/OGL_DATA/lidDrivenCavity3D/v0.1-136-g40fef35/f584ccac99/IntelXeonGold6230CPU@2.10GHz/Test_2021-07-04-08:36:30/75/p-U-BiCGStab-GKO-none-omp/lidDrivenCavity3D
nProcs : 1
sigFpe : Enabling floating point exception trapping (FOAM_SIGFPE).
fileModificationChecking : Monitoring run-time modified files using timeStampMaster (fileModificationSkew 10)
allowSystemOperations : Allowing user-supplied system call operations

// * * * * * * * * * * * * * * * * * * * * * * * * * * * * * * * * * * * * * //
Create time

Create mesh for time = 0

Reading transportProperties

Reading field p

Reading field U

Reading/calculating face flux field phi


Starting time loop

Time = 0.00133333

Courant Number mean: 0 max: 0
[OGL LOG] init_host_sparsity_pattern : 120 ms
[OGL LOG] matrix not stored update host matrix
[OGL LOG] update_host_mtx : 61 ms
[OGL LOG] matrix is not yet sorted, compute sorting idxs
[OGL LOG] compute_sort : 3631 ms
[OGL LOG] matrix is not yet sorted, sorting host matrix
[OGL LOG] sort_host_mtx_sparsity_pattern : 77 ms
[OGL LOG] sort_host_mtx : 51 ms
[OGL LOG] init_preconditioner : 0 ms
[OGL LOG] solve : 1380 ms
noneompGKOBiCGStab:  Solving for Ux, Initial residual = 1, Final residual = 3.51283e-07, No Iterations 51
[OGL LOG] init_host_sparsity_pattern : 117 ms
[OGL LOG] matrix not stored update host matrix
[OGL LOG] update_host_mtx : 61 ms
[OGL LOG] matrix is not yet sorted, sorting host matrix
[OGL LOG] sort_host_mtx_sparsity_pattern : 80 ms
[OGL LOG] sort_host_mtx : 43 ms
[OGL LOG] init_preconditioner : 0 ms
[OGL LOG] solve : 32 ms
noneompGKOBiCGStab:  Solving for Uy, Initial residual = 0, Final residual = 0, No Iterations 0
[OGL LOG] init_host_sparsity_pattern : 112 ms
[OGL LOG] matrix not stored update host matrix
[OGL LOG] update_host_mtx : 53 ms
[OGL LOG] matrix is not yet sorted, sorting host matrix
[OGL LOG] sort_host_mtx_sparsity_pattern : 80 ms
[OGL LOG] sort_host_mtx : 43 ms
[OGL LOG] init_preconditioner : 0 ms
[OGL LOG] solve : 29 ms
noneompGKOBiCGStab:  Solving for Uz, Initial residual = 0, Final residual = 0, No Iterations 0
[OGL LOG] init_host_sparsity_pattern : 112 ms
[OGL LOG] matrix not stored update host matrix
[OGL LOG] update_host_mtx : 64 ms
[OGL LOG] matrix is not yet sorted, sorting host matrix
[OGL LOG] sort_host_mtx_sparsity_pattern : 80 ms
[OGL LOG] sort_host_mtx : 43 ms
[OGL LOG] init_preconditioner : 0 ms
[OGL LOG] solve : 15082 ms
noneompGKOBiCGStab:  Solving for p, Initial residual = 1, Final residual = 9.01179e-07, No Iterations 566
time step continuity errors : sum local = 4.18037e-09, global = -1.94503e-21, cumulative = -1.94503e-21
[OGL LOG] init_preconditioner : 0 ms
[OGL LOG] solve : 13728 ms
noneompGKOBiCGStab:  Solving for p, Initial residual = 0.759333, Final residual = 8.84565e-07, No Iterations 512
time step continuity errors : sum local = 2.06762e-09, global = -6.39955e-22, cumulative = -2.58498e-21
ExecutionTime = 37.08 s  ClockTime = 37 s

Time = 0.00266667

Courant Number mean: 0.0631769 max: 0.775367
[OGL LOG] init_host_sparsity_pattern : 112 ms
[OGL LOG] matrix not stored update host matrix
[OGL LOG] update_host_mtx : 53 ms
[OGL LOG] matrix is not yet sorted, sorting host matrix
[OGL LOG] sort_host_mtx_sparsity_pattern : 72 ms
[OGL LOG] sort_host_mtx : 43 ms
[OGL LOG] init_preconditioner : 0 ms
[OGL LOG] solve : 1192 ms
noneompGKOBiCGStab:  Solving for Ux, Initial residual = 0.18304, Final residual = 7.04971e-07, No Iterations 44
[OGL LOG] init_host_sparsity_pattern : 112 ms
[OGL LOG] matrix not stored update host matrix
[OGL LOG] update_host_mtx : 53 ms
[OGL LOG] matrix is not yet sorted, sorting host matrix
[OGL LOG] sort_host_mtx_sparsity_pattern : 72 ms
[OGL LOG] sort_host_mtx : 44 ms
[OGL LOG] init_preconditioner : 0 ms
[OGL LOG] solve : 1268 ms
noneompGKOBiCGStab:  Solving for Uy, Initial residual = 0.619623, Final residual = 8.97292e-07, No Iterations 47
[OGL LOG] init_host_sparsity_pattern : 112 ms
[OGL LOG] matrix not stored update host matrix
[OGL LOG] update_host_mtx : 54 ms
[OGL LOG] matrix is not yet sorted, sorting host matrix
[OGL LOG] sort_host_mtx_sparsity_pattern : 72 ms
[OGL LOG] sort_host_mtx : 43 ms
[OGL LOG] init_preconditioner : 0 ms
[OGL LOG] solve : 1281 ms
noneompGKOBiCGStab:  Solving for Uz, Initial residual = 0.60493, Final residual = 2.01667e-07, No Iterations 47
[OGL LOG] init_preconditioner : 0 ms
[OGL LOG] solve : 14330 ms
noneompGKOBiCGStab:  Solving for p, Initial residual = 0.749128, Final residual = 1.80069e-07, No Iterations 537
time step continuity errors : sum local = 1.14147e-08, global = -7.19459e-21, cumulative = -9.77958e-21
[OGL LOG] init_preconditioner : 0 ms
[OGL LOG] solve : 13561 ms
noneompGKOBiCGStab:  Solving for p, Initial residual = 0.683908, Final residual = 9.25928e-07, No Iterations 506
time step continuity errors : sum local = 1.76443e-08, global = 7.98303e-21, cumulative = -1.79654e-21
ExecutionTime = 69.86 s  ClockTime = 70 s

Time = 0.004

Courant Number mean: 0.0951463 max: 0.917098
[OGL LOG] init_host_sparsity_pattern : 111 ms
[OGL LOG] matrix not stored update host matrix
[OGL LOG] update_host_mtx : 53 ms
[OGL LOG] matrix is not yet sorted, sorting host matrix
[OGL LOG] sort_host_mtx_sparsity_pattern : 72 ms
[OGL LOG] sort_host_mtx : 43 ms
[OGL LOG] init_preconditioner : 0 ms
[OGL LOG] solve : 1162 ms
noneompGKOBiCGStab:  Solving for Ux, Initial residual = 0.101967, Final residual = 9.35308e-07, No Iterations 43
[OGL LOG] init_host_sparsity_pattern : 112 ms
[OGL LOG] matrix not stored update host matrix
[OGL LOG] update_host_mtx : 53 ms
[OGL LOG] matrix is not yet sorted, sorting host matrix
[OGL LOG] sort_host_mtx_sparsity_pattern : 72 ms
[OGL LOG] sort_host_mtx : 43 ms
[OGL LOG] init_preconditioner : 0 ms
[OGL LOG] solve : 1162 ms
noneompGKOBiCGStab:  Solving for Uy, Initial residual = 0.335354, Final residual = 9.86461e-07, No Iterations 43
[OGL LOG] init_host_sparsity_pattern : 112 ms
[OGL LOG] matrix not stored update host matrix
[OGL LOG] update_host_mtx : 53 ms
[OGL LOG] matrix is not yet sorted, sorting host matrix
[OGL LOG] sort_host_mtx_sparsity_pattern : 72 ms
[OGL LOG] sort_host_mtx : 44 ms
[OGL LOG] init_preconditioner : 0 ms
[OGL LOG] solve : 1321 ms
noneompGKOBiCGStab:  Solving for Uz, Initial residual = 0.921534, Final residual = 9.27127e-07, No Iterations 49
[OGL LOG] init_preconditioner : 0 ms
[OGL LOG] solve : 15349 ms
noneompGKOBiCGStab:  Solving for p, Initial residual = 0.754769, Final residual = 6.37806e-07, No Iterations 574
time step continuity errors : sum local = 9.9866e-09, global = -1.81696e-20, cumulative = -1.99661e-20
[OGL LOG] init_preconditioner : 0 ms
[OGL LOG] solve : 14248 ms
noneompGKOBiCGStab:  Solving for p, Initial residual = 0.716968, Final residual = 1.15046e-07, No Iterations 532
time step continuity errors : sum local = 8.76842e-09, global = -3.7881e-21, cumulative = -2.37542e-20
ExecutionTime = 104.22 s  ClockTime = 105 s

Time = 0.00533333

Courant Number mean: 0.109256 max: 0.913436
[OGL LOG] init_host_sparsity_pattern : 112 ms
[OGL LOG] matrix not stored update host matrix
[OGL LOG] update_host_mtx : 53 ms
[OGL LOG] matrix is not yet sorted, sorting host matrix
[OGL LOG] sort_host_mtx_sparsity_pattern : 72 ms
[OGL LOG] sort_host_mtx : 44 ms
[OGL LOG] init_preconditioner : 0 ms
[OGL LOG] solve : 1056 ms
noneompGKOBiCGStab:  Solving for Ux, Initial residual = 0.0447097, Final residual = 7.97626e-07, No Iterations 39
[OGL LOG] init_host_sparsity_pattern : 112 ms
[OGL LOG] matrix not stored update host matrix
[OGL LOG] update_host_mtx : 53 ms
[OGL LOG] matrix is not yet sorted, sorting host matrix
[OGL LOG] sort_host_mtx_sparsity_pattern : 72 ms
[OGL LOG] sort_host_mtx : 43 ms
[OGL LOG] init_preconditioner : 0 ms
[OGL LOG] solve : 1111 ms
noneompGKOBiCGStab:  Solving for Uy, Initial residual = 0.197572, Final residual = 8.12274e-07, No Iterations 41
[OGL LOG] init_host_sparsity_pattern : 111 ms
[OGL LOG] matrix not stored update host matrix
[OGL LOG] update_host_mtx : 53 ms
[OGL LOG] matrix is not yet sorted, sorting host matrix
[OGL LOG] sort_host_mtx_sparsity_pattern : 72 ms
[OGL LOG] sort_host_mtx : 43 ms
[OGL LOG] init_preconditioner : 0 ms
[OGL LOG] solve : 1139 ms
noneompGKOBiCGStab:  Solving for Uz, Initial residual = 0.733655, Final residual = 9.98251e-07, No Iterations 42
[OGL LOG] init_preconditioner : 0 ms
[OGL LOG] solve : 14575 ms
noneompGKOBiCGStab:  Solving for p, Initial residual = 0.617386, Final residual = 6.84875e-07, No Iterations 545
time step continuity errors : sum local = 5.62075e-09, global = -6.17364e-21, cumulative = -2.99279e-20
[OGL LOG] init_preconditioner : 0 ms
[OGL LOG] solve : 14801 ms
noneompGKOBiCGStab:  Solving for p, Initial residual = 0.55474, Final residual = 9.46952e-07, No Iterations 553
time step continuity errors : sum local = 2.90441e-09, global = 6.82489e-21, cumulative = -2.3103e-20
ExecutionTime = 138.04 s  ClockTime = 138 s

Time = 0.00666667

Courant Number mean: 0.122085 max: 0.929084
[OGL LOG] init_host_sparsity_pattern : 111 ms
[OGL LOG] matrix not stored update host matrix
[OGL LOG] update_host_mtx : 53 ms
[OGL LOG] matrix is not yet sorted, sorting host matrix
[OGL LOG] sort_host_mtx_sparsity_pattern : 73 ms
[OGL LOG] sort_host_mtx : 45 ms
[OGL LOG] init_preconditioner : 0 ms
[OGL LOG] solve : 1081 ms
noneompGKOBiCGStab:  Solving for Ux, Initial residual = 0.0318898, Final residual = 5.9173e-07, No Iterations 40
[OGL LOG] init_host_sparsity_pattern : 111 ms
[OGL LOG] matrix not stored update host matrix
[OGL LOG] update_host_mtx : 53 ms
[OGL LOG] matrix is not yet sorted, sorting host matrix
[OGL LOG] sort_host_mtx_sparsity_pattern : 72 ms
[OGL LOG] sort_host_mtx : 43 ms
[OGL LOG] init_preconditioner : 0 ms
[OGL LOG] solve : 1085 ms
noneompGKOBiCGStab:  Solving for Uy, Initial residual = 0.0805706, Final residual = 2.92516e-07, No Iterations 40
[OGL LOG] init_host_sparsity_pattern : 112 ms
[OGL LOG] matrix not stored update host matrix
[OGL LOG] update_host_mtx : 53 ms
[OGL LOG] matrix is not yet sorted, sorting host matrix
[OGL LOG] sort_host_mtx_sparsity_pattern : 72 ms
[OGL LOG] sort_host_mtx : 43 ms
[OGL LOG] init_preconditioner : 0 ms
[OGL LOG] solve : 1310 ms
noneompGKOBiCGStab:  Solving for Uz, Initial residual = 0.514225, Final residual = 7.47093e-07, No Iterations 48
[OGL LOG] init_preconditioner : 0 ms
[OGL LOG] solve : 14446 ms
noneompGKOBiCGStab:  Solving for p, Initial residual = 0.592019, Final residual = 7.49904e-07, No Iterations 541
time step continuity errors : sum local = 1.0343e-08, global = 3.2491e-22, cumulative = -2.27781e-20
[OGL LOG] init_preconditioner : 0 ms
[OGL LOG] solve : 13879 ms
noneompGKOBiCGStab:  Solving for p, Initial residual = 0.543092, Final residual = 3.8486e-07, No Iterations 518
time step continuity errors : sum local = 5.5988e-09, global = -1.9306e-20, cumulative = -4.20841e-20
ExecutionTime = 170.98 s  ClockTime = 171 s

End

