/*---------------------------------------------------------------------------*\
  =========                 |
  \\      /  F ield         | OpenFOAM: The Open Source CFD Toolbox
   \\    /   O peration     | Website:  https://openfoam.org
    \\  /    A nd           | Version:  8
     \\/     M anipulation  |
\*---------------------------------------------------------------------------*/
Build  : 8-13d66902f78c
Exec   : icoFoam
Date   : Jul 04 2021
Time   : 09:23:52
Host   : "uc2n415.localdomain"
PID    : 2609649
I/O    : uncollated
Case   : /pfs/data5/home/kit/scc/nq7776/code/OGL_DATA/lidDrivenCavity3D/v0.1-136-g40fef35/f584ccac99/IntelXeonGold6230CPU@2.10GHz/Test_2021-07-04-08:36:30/75/p-U-BiCGStab-GKO-none-omp/lidDrivenCavity3D
nProcs : 1
sigFpe : Enabling floating point exception trapping (FOAM_SIGFPE).
fileModificationChecking : Monitoring run-time modified files using timeStampMaster (fileModificationSkew 10)
allowSystemOperations : Allowing user-supplied system call operations

// * * * * * * * * * * * * * * * * * * * * * * * * * * * * * * * * * * * * * //
Create time

Create mesh for time = 0

Reading transportProperties

Reading field p

Reading field U

Reading/calculating face flux field phi


Starting time loop

Time = 0.00133333

Courant Number mean: 0 max: 0
[OGL LOG] init_host_sparsity_pattern : 122 ms
[OGL LOG] matrix not stored update host matrix
[OGL LOG] update_host_mtx : 61 ms
[OGL LOG] matrix is not yet sorted, compute sorting idxs
[OGL LOG] compute_sort : 3620 ms
[OGL LOG] matrix is not yet sorted, sorting host matrix
[OGL LOG] sort_host_mtx_sparsity_pattern : 82 ms
[OGL LOG] sort_host_mtx : 52 ms
[OGL LOG] init_preconditioner : 0 ms
[OGL LOG] solve : 645 ms
noneompGKOBiCGStab:  Solving for Ux, Initial residual = 1, Final residual = 3.51283e-07, No Iterations 51
[OGL LOG] init_host_sparsity_pattern : 117 ms
[OGL LOG] matrix not stored update host matrix
[OGL LOG] update_host_mtx : 61 ms
[OGL LOG] matrix is not yet sorted, sorting host matrix
[OGL LOG] sort_host_mtx_sparsity_pattern : 84 ms
[OGL LOG] sort_host_mtx : 43 ms
[OGL LOG] init_preconditioner : 0 ms
[OGL LOG] solve : 16 ms
noneompGKOBiCGStab:  Solving for Uy, Initial residual = 0, Final residual = 0, No Iterations 0
[OGL LOG] init_host_sparsity_pattern : 112 ms
[OGL LOG] matrix not stored update host matrix
[OGL LOG] update_host_mtx : 53 ms
[OGL LOG] matrix is not yet sorted, sorting host matrix
[OGL LOG] sort_host_mtx_sparsity_pattern : 85 ms
[OGL LOG] sort_host_mtx : 43 ms
[OGL LOG] init_preconditioner : 0 ms
[OGL LOG] solve : 14 ms
noneompGKOBiCGStab:  Solving for Uz, Initial residual = 0, Final residual = 0, No Iterations 0
[OGL LOG] init_host_sparsity_pattern : 112 ms
[OGL LOG] matrix not stored update host matrix
[OGL LOG] update_host_mtx : 62 ms
[OGL LOG] matrix is not yet sorted, sorting host matrix
[OGL LOG] sort_host_mtx_sparsity_pattern : 80 ms
[OGL LOG] sort_host_mtx : 43 ms
[OGL LOG] init_preconditioner : 0 ms
[OGL LOG] solve : 7322 ms
noneompGKOBiCGStab:  Solving for p, Initial residual = 1, Final residual = 9.01179e-07, No Iterations 566
time step continuity errors : sum local = 3.58782e-08, global = -1.94558e-21, cumulative = -1.94558e-21
[OGL LOG] init_preconditioner : 0 ms
[OGL LOG] solve : 6131 ms
noneompGKOBiCGStab:  Solving for p, Initial residual = 0.759335, Final residual = 2.87797e-07, No Iterations 505
time step continuity errors : sum local = 2.06819e-07, global = -1.1838e-20, cumulative = -1.37836e-20
ExecutionTime = 63.47 s  ClockTime = 21 s

Time = 0.00266667

Courant Number mean: 0.0631769 max: 0.775366
[OGL LOG] init_host_sparsity_pattern : 113 ms
[OGL LOG] matrix not stored update host matrix
[OGL LOG] update_host_mtx : 55 ms
[OGL LOG] matrix is not yet sorted, sorting host matrix
[OGL LOG] sort_host_mtx_sparsity_pattern : 84 ms
[OGL LOG] sort_host_mtx : 43 ms
[OGL LOG] init_preconditioner : 0 ms
[OGL LOG] solve : 565 ms
noneompGKOBiCGStab:  Solving for Ux, Initial residual = 0.183047, Final residual = 9.14673e-07, No Iterations 43
[OGL LOG] init_host_sparsity_pattern : 113 ms
[OGL LOG] matrix not stored update host matrix
[OGL LOG] update_host_mtx : 53 ms
[OGL LOG] matrix is not yet sorted, sorting host matrix
[OGL LOG] sort_host_mtx_sparsity_pattern : 77 ms
[OGL LOG] sort_host_mtx : 43 ms
[OGL LOG] init_preconditioner : 0 ms
[OGL LOG] solve : 606 ms
noneompGKOBiCGStab:  Solving for Uy, Initial residual = 0.619613, Final residual = 7.99724e-07, No Iterations 46
[OGL LOG] init_host_sparsity_pattern : 113 ms
[OGL LOG] matrix not stored update host matrix
[OGL LOG] update_host_mtx : 53 ms
[OGL LOG] matrix is not yet sorted, sorting host matrix
[OGL LOG] sort_host_mtx_sparsity_pattern : 77 ms
[OGL LOG] sort_host_mtx : 43 ms
[OGL LOG] init_preconditioner : 0 ms
[OGL LOG] solve : 624 ms
noneompGKOBiCGStab:  Solving for Uz, Initial residual = 0.605081, Final residual = 9.1179e-07, No Iterations 48
[OGL LOG] init_preconditioner : 0 ms
[OGL LOG] solve : 6482 ms
noneompGKOBiCGStab:  Solving for p, Initial residual = 0.749136, Final residual = 7.42129e-07, No Iterations 530
time step continuity errors : sum local = 2.66646e-08, global = -1.37273e-20, cumulative = -2.75109e-20
[OGL LOG] init_preconditioner : 0 ms
[OGL LOG] solve : 6487 ms
noneompGKOBiCGStab:  Solving for p, Initial residual = 0.68389, Final residual = 4.29611e-07, No Iterations 517
time step continuity errors : sum local = 4.78744e-08, global = 6.33761e-21, cumulative = -2.11733e-20
ExecutionTime = 123.77 s  ClockTime = 37 s

Time = 0.004

Courant Number mean: 0.0951467 max: 0.917099
[OGL LOG] init_host_sparsity_pattern : 112 ms
[OGL LOG] matrix not stored update host matrix
[OGL LOG] update_host_mtx : 54 ms
[OGL LOG] matrix is not yet sorted, sorting host matrix
[OGL LOG] sort_host_mtx_sparsity_pattern : 84 ms
[OGL LOG] sort_host_mtx : 43 ms
[OGL LOG] init_preconditioner : 0 ms
[OGL LOG] solve : 530 ms
noneompGKOBiCGStab:  Solving for Ux, Initial residual = 0.101974, Final residual = 9.67179e-07, No Iterations 40
[OGL LOG] init_host_sparsity_pattern : 112 ms
[OGL LOG] matrix not stored update host matrix
[OGL LOG] update_host_mtx : 53 ms
[OGL LOG] matrix is not yet sorted, sorting host matrix
[OGL LOG] sort_host_mtx_sparsity_pattern : 77 ms
[OGL LOG] sort_host_mtx : 43 ms
[OGL LOG] init_preconditioner : 0 ms
[OGL LOG] solve : 601 ms
noneompGKOBiCGStab:  Solving for Uy, Initial residual = 0.335355, Final residual = 9.06436e-07, No Iterations 44
[OGL LOG] init_host_sparsity_pattern : 113 ms
[OGL LOG] matrix not stored update host matrix
[OGL LOG] update_host_mtx : 53 ms
[OGL LOG] matrix is not yet sorted, sorting host matrix
[OGL LOG] sort_host_mtx_sparsity_pattern : 77 ms
[OGL LOG] sort_host_mtx : 43 ms
[OGL LOG] init_preconditioner : 0 ms
[OGL LOG] solve : 642 ms
noneompGKOBiCGStab:  Solving for Uz, Initial residual = 0.922164, Final residual = 6.07698e-07, No Iterations 49
[OGL LOG] init_preconditioner : 0 ms
[OGL LOG] solve : 6584 ms
noneompGKOBiCGStab:  Solving for p, Initial residual = 0.754759, Final residual = 8.30331e-07, No Iterations 539
time step continuity errors : sum local = 1.12422e-08, global = 4.15543e-21, cumulative = -1.70179e-20
[OGL LOG] init_preconditioner : 0 ms
[OGL LOG] solve : 6748 ms
noneompGKOBiCGStab:  Solving for p, Initial residual = 0.716959, Final residual = 9.09273e-09, No Iterations 536
time step continuity errors : sum local = 1.15118e-07, global = 1.02086e-21, cumulative = -1.5997e-20
ExecutionTime = 185.34 s  ClockTime = 53 s

Time = 0.00533333

Courant Number mean: 0.109256 max: 0.913435
[OGL LOG] init_host_sparsity_pattern : 113 ms
[OGL LOG] matrix not stored update host matrix
[OGL LOG] update_host_mtx : 54 ms
[OGL LOG] matrix is not yet sorted, sorting host matrix
[OGL LOG] sort_host_mtx_sparsity_pattern : 77 ms
[OGL LOG] sort_host_mtx : 43 ms
[OGL LOG] init_preconditioner : 0 ms
[OGL LOG] solve : 508 ms
noneompGKOBiCGStab:  Solving for Ux, Initial residual = 0.0447072, Final residual = 7.3841e-07, No Iterations 39
[OGL LOG] init_host_sparsity_pattern : 113 ms
[OGL LOG] matrix not stored update host matrix
[OGL LOG] update_host_mtx : 53 ms
[OGL LOG] matrix is not yet sorted, sorting host matrix
[OGL LOG] sort_host_mtx_sparsity_pattern : 77 ms
[OGL LOG] sort_host_mtx : 43 ms
[OGL LOG] init_preconditioner : 0 ms
[OGL LOG] solve : 514 ms
noneompGKOBiCGStab:  Solving for Uy, Initial residual = 0.197577, Final residual = 9.45226e-07, No Iterations 39
[OGL LOG] init_host_sparsity_pattern : 113 ms
[OGL LOG] matrix not stored update host matrix
[OGL LOG] update_host_mtx : 53 ms
[OGL LOG] matrix is not yet sorted, sorting host matrix
[OGL LOG] sort_host_mtx_sparsity_pattern : 77 ms
[OGL LOG] sort_host_mtx : 43 ms
[OGL LOG] init_preconditioner : 0 ms
[OGL LOG] solve : 570 ms
noneompGKOBiCGStab:  Solving for Uz, Initial residual = 0.73354, Final residual = 9.38714e-07, No Iterations 44
[OGL LOG] init_preconditioner : 0 ms
[OGL LOG] solve : 6753 ms
noneompGKOBiCGStab:  Solving for p, Initial residual = 0.617414, Final residual = 8.65953e-07, No Iterations 553
time step continuity errors : sum local = 1.66036e-08, global = 2.90817e-21, cumulative = -1.30889e-20
[OGL LOG] init_preconditioner : 0 ms
[OGL LOG] solve : 6857 ms
noneompGKOBiCGStab:  Solving for p, Initial residual = 0.554762, Final residual = 8.85756e-07, No Iterations 545
time step continuity errors : sum local = 1.23923e-08, global = -3.47543e-21, cumulative = -1.65643e-20
ExecutionTime = 247.35 s  ClockTime = 70 s

Time = 0.00666667

Courant Number mean: 0.122085 max: 0.929084
[OGL LOG] init_host_sparsity_pattern : 113 ms
[OGL LOG] matrix not stored update host matrix
[OGL LOG] update_host_mtx : 55 ms
[OGL LOG] matrix is not yet sorted, sorting host matrix
[OGL LOG] sort_host_mtx_sparsity_pattern : 84 ms
[OGL LOG] sort_host_mtx : 44 ms
[OGL LOG] init_preconditioner : 0 ms
[OGL LOG] solve : 514 ms
noneompGKOBiCGStab:  Solving for Ux, Initial residual = 0.0318922, Final residual = 9.23373e-07, No Iterations 39
[OGL LOG] init_host_sparsity_pattern : 113 ms
[OGL LOG] matrix not stored update host matrix
[OGL LOG] update_host_mtx : 53 ms
[OGL LOG] matrix is not yet sorted, sorting host matrix
[OGL LOG] sort_host_mtx_sparsity_pattern : 77 ms
[OGL LOG] sort_host_mtx : 43 ms
[OGL LOG] init_preconditioner : 0 ms
[OGL LOG] solve : 534 ms
noneompGKOBiCGStab:  Solving for Uy, Initial residual = 0.0805627, Final residual = 7.85088e-07, No Iterations 41
[OGL LOG] init_host_sparsity_pattern : 112 ms
[OGL LOG] matrix not stored update host matrix
[OGL LOG] update_host_mtx : 53 ms
[OGL LOG] matrix is not yet sorted, sorting host matrix
[OGL LOG] sort_host_mtx_sparsity_pattern : 77 ms
[OGL LOG] sort_host_mtx : 43 ms
[OGL LOG] init_preconditioner : 0 ms
[OGL LOG] solve : 587 ms
noneompGKOBiCGStab:  Solving for Uz, Initial residual = 0.514218, Final residual = 5.04185e-07, No Iterations 45
[OGL LOG] init_preconditioner : 0 ms
[OGL LOG] solve : 6398 ms
noneompGKOBiCGStab:  Solving for p, Initial residual = 0.592009, Final residual = 3.92282e-07, No Iterations 521
time step continuity errors : sum local = 1.2976e-07, global = 3.15487e-20, cumulative = 1.49844e-20
[OGL LOG] init_preconditioner : 0 ms
[OGL LOG] solve : 6708 ms
noneompGKOBiCGStab:  Solving for p, Initial residual = 0.543122, Final residual = 9.34184e-07, No Iterations 534
time step continuity errors : sum local = 3.50808e-09, global = 2.09296e-21, cumulative = 1.70773e-20
ExecutionTime = 307.53 s  ClockTime = 86 s

End

