/*---------------------------------------------------------------------------*\
  =========                 |
  \\      /  F ield         | OpenFOAM: The Open Source CFD Toolbox
   \\    /   O peration     | Website:  https://openfoam.org
    \\  /    A nd           | Version:  8
     \\/     M anipulation  |
\*---------------------------------------------------------------------------*/
Build  : 8-13d66902f78c
Exec   : icoFoam
Date   : Jul 04 2021
Time   : 08:57:12
Host   : "uc2n384.localdomain"
PID    : 2621632
I/O    : uncollated
Case   : /pfs/data5/home/kit/scc/nq7776/code/OGL_DATA/lidDrivenCavity3D/v0.1-136-g40fef35/f584ccac99/IntelXeonGold6230CPU@2.10GHz/Test_2021-07-04-08:57:08/25/p-U-CG-GKO-BJ-omp/lidDrivenCavity3D
nProcs : 1
sigFpe : Enabling floating point exception trapping (FOAM_SIGFPE).
fileModificationChecking : Monitoring run-time modified files using timeStampMaster (fileModificationSkew 10)
allowSystemOperations : Allowing user-supplied system call operations

// * * * * * * * * * * * * * * * * * * * * * * * * * * * * * * * * * * * * * //
Create time

Create mesh for time = 0

Reading transportProperties

Reading field p

Reading field U

Reading/calculating face flux field phi


Starting time loop

Time = 0.004

Courant Number mean: 0 max: 0
[OGL LOG] init_host_sparsity_pattern : 4 ms
[OGL LOG] matrix not stored update host matrix
[OGL LOG] update_host_mtx : 2 ms
[OGL LOG] matrix is not yet sorted, compute sorting idxs
[OGL LOG] compute_sort : 105 ms
[OGL LOG] matrix is not yet sorted, sorting host matrix
[OGL LOG] sort_host_mtx_sparsity_pattern : 3 ms
[OGL LOG] sort_host_mtx : 1 ms
[OGL LOG] init_preconditioner : 4 ms
[OGL LOG] solve : 61 ms
BJompGKOBiCGStab:  Solving for Ux, Initial residual = 1, Final residual = 6.47745e-07, No Iterations 22
[OGL LOG] init_host_sparsity_pattern : 4 ms
[OGL LOG] matrix not stored update host matrix
[OGL LOG] update_host_mtx : 2 ms
[OGL LOG] matrix is not yet sorted, sorting host matrix
[OGL LOG] sort_host_mtx_sparsity_pattern : 2 ms
[OGL LOG] sort_host_mtx : 1 ms
[OGL LOG] init_preconditioner : 4 ms
[OGL LOG] solve : 2 ms
BJompGKOBiCGStab:  Solving for Uy, Initial residual = 0, Final residual = 0, No Iterations 0
[OGL LOG] init_host_sparsity_pattern : 4 ms
[OGL LOG] matrix not stored update host matrix
[OGL LOG] update_host_mtx : 1 ms
[OGL LOG] matrix is not yet sorted, sorting host matrix
[OGL LOG] sort_host_mtx_sparsity_pattern : 2 ms
[OGL LOG] sort_host_mtx : 1 ms
[OGL LOG] init_preconditioner : 4 ms
[OGL LOG] solve : 1 ms
BJompGKOBiCGStab:  Solving for Uz, Initial residual = 0, Final residual = 0, No Iterations 0
[OGL LOG] init_host_sparsity_pattern : 4 ms
[OGL LOG] matrix not stored update host matrix
[OGL LOG] update_host_mtx : 2 ms
[OGL LOG] matrix is not yet sorted, sorting host matrix
[OGL LOG] sort_host_mtx_sparsity_pattern : 2 ms
[OGL LOG] sort_host_mtx : 1 ms
[OGL LOG] init_preconditioner : 4 ms
 CG create  precond 
[OGL LOG] solve : 247 ms
BJompGKOCG:  Solving for p, Initial residual = 1, Final residual = 9.97301e-07, No Iterations 185
time step continuity errors : sum local = 4.42673e-09, global = -2.80162e-20, cumulative = -2.80162e-20
[OGL LOG] init_preconditioner : 0 ms
 CG create  precond 
[OGL LOG] solve : 243 ms
BJompGKOCG:  Solving for p, Initial residual = 0.644082, Final residual = 8.74198e-07, No Iterations 182
time step continuity errors : sum local = 5.48477e-09, global = -3.83121e-20, cumulative = -6.63283e-20
ExecutionTime = 0.85 s  ClockTime = 1 s

Time = 0.008

Courant Number mean: 0.0870973 max: 0.619854
[OGL LOG] init_host_sparsity_pattern : 4 ms
[OGL LOG] matrix not stored update host matrix
[OGL LOG] update_host_mtx : 1 ms
[OGL LOG] matrix is not yet sorted, sorting host matrix
[OGL LOG] sort_host_mtx_sparsity_pattern : 2 ms
[OGL LOG] sort_host_mtx : 1 ms
[OGL LOG] init_preconditioner : 0 ms
[OGL LOG] solve : 53 ms
BJompGKOBiCGStab:  Solving for Ux, Initial residual = 0.238938, Final residual = 8.6468e-07, No Iterations 19
[OGL LOG] init_host_sparsity_pattern : 4 ms
[OGL LOG] matrix not stored update host matrix
[OGL LOG] update_host_mtx : 1 ms
[OGL LOG] matrix is not yet sorted, sorting host matrix
[OGL LOG] sort_host_mtx_sparsity_pattern : 2 ms
[OGL LOG] sort_host_mtx : 1 ms
[OGL LOG] init_preconditioner : 0 ms
[OGL LOG] solve : 55 ms
BJompGKOBiCGStab:  Solving for Uy, Initial residual = 0.615478, Final residual = 7.77152e-07, No Iterations 20
[OGL LOG] init_host_sparsity_pattern : 4 ms
[OGL LOG] matrix not stored update host matrix
[OGL LOG] update_host_mtx : 1 ms
[OGL LOG] matrix is not yet sorted, sorting host matrix
[OGL LOG] sort_host_mtx_sparsity_pattern : 2 ms
[OGL LOG] sort_host_mtx : 1 ms
[OGL LOG] init_preconditioner : 0 ms
[OGL LOG] solve : 53 ms
BJompGKOBiCGStab:  Solving for Uz, Initial residual = 0.391818, Final residual = 7.3409e-07, No Iterations 19
[OGL LOG] init_preconditioner : 0 ms
 CG create  precond 
[OGL LOG] solve : 259 ms
BJompGKOCG:  Solving for p, Initial residual = 0.527354, Final residual = 9.48316e-07, No Iterations 194
time step continuity errors : sum local = 5.68299e-09, global = 5.90011e-20, cumulative = -7.32728e-21
[OGL LOG] init_preconditioner : 0 ms
 CG create  precond 
[OGL LOG] solve : 258 ms
BJompGKOCG:  Solving for p, Initial residual = 0.437513, Final residual = 9.94139e-07, No Iterations 193
time step continuity errors : sum local = 6.20826e-09, global = 1.32671e-19, cumulative = 1.25344e-19
ExecutionTime = 1.56 s  ClockTime = 1 s

Time = 0.012

Courant Number mean: 0.127403 max: 0.798792
[OGL LOG] init_host_sparsity_pattern : 4 ms
[OGL LOG] matrix not stored update host matrix
[OGL LOG] update_host_mtx : 1 ms
[OGL LOG] matrix is not yet sorted, sorting host matrix
[OGL LOG] sort_host_mtx_sparsity_pattern : 2 ms
[OGL LOG] sort_host_mtx : 1 ms
[OGL LOG] init_preconditioner : 0 ms
[OGL LOG] solve : 48 ms
BJompGKOBiCGStab:  Solving for Ux, Initial residual = 0.0920495, Final residual = 9.42004e-07, No Iterations 18
[OGL LOG] init_host_sparsity_pattern : 4 ms
[OGL LOG] matrix not stored update host matrix
[OGL LOG] update_host_mtx : 1 ms
[OGL LOG] matrix is not yet sorted, sorting host matrix
[OGL LOG] sort_host_mtx_sparsity_pattern : 2 ms
[OGL LOG] sort_host_mtx : 1 ms
[OGL LOG] init_preconditioner : 0 ms
[OGL LOG] solve : 47 ms
BJompGKOBiCGStab:  Solving for Uy, Initial residual = 0.145852, Final residual = 9.21786e-07, No Iterations 17
[OGL LOG] init_host_sparsity_pattern : 4 ms
[OGL LOG] matrix not stored update host matrix
[OGL LOG] update_host_mtx : 1 ms
[OGL LOG] matrix is not yet sorted, sorting host matrix
[OGL LOG] sort_host_mtx_sparsity_pattern : 2 ms
[OGL LOG] sort_host_mtx : 1 ms
[OGL LOG] init_preconditioner : 0 ms
[OGL LOG] solve : 52 ms
BJompGKOBiCGStab:  Solving for Uz, Initial residual = 0.339763, Final residual = 6.60917e-07, No Iterations 19
[OGL LOG] init_preconditioner : 0 ms
 CG create  precond 
[OGL LOG] solve : 254 ms
BJompGKOCG:  Solving for p, Initial residual = 0.305735, Final residual = 9.81193e-07, No Iterations 189
time step continuity errors : sum local = 4.38441e-09, global = -2.17124e-20, cumulative = 1.03632e-19
[OGL LOG] init_preconditioner : 0 ms
 CG create  precond 
[OGL LOG] solve : 244 ms
BJompGKOCG:  Solving for p, Initial residual = 0.265167, Final residual = 9.31802e-07, No Iterations 182
time step continuity errors : sum local = 4.08564e-09, global = -1.30277e-19, cumulative = -2.6645e-20
ExecutionTime = 2.26 s  ClockTime = 2 s

Time = 0.016

Courant Number mean: 0.145254 max: 0.82722
[OGL LOG] init_host_sparsity_pattern : 4 ms
[OGL LOG] matrix not stored update host matrix
[OGL LOG] update_host_mtx : 2 ms
[OGL LOG] matrix is not yet sorted, sorting host matrix
[OGL LOG] sort_host_mtx_sparsity_pattern : 3 ms
[OGL LOG] sort_host_mtx : 1 ms
[OGL LOG] init_preconditioner : 0 ms
[OGL LOG] solve : 40 ms
BJompGKOBiCGStab:  Solving for Ux, Initial residual = 0.0235044, Final residual = 9.82961e-07, No Iterations 15
[OGL LOG] init_host_sparsity_pattern : 4 ms
[OGL LOG] matrix not stored update host matrix
[OGL LOG] update_host_mtx : 1 ms
[OGL LOG] matrix is not yet sorted, sorting host matrix
[OGL LOG] sort_host_mtx_sparsity_pattern : 2 ms
[OGL LOG] sort_host_mtx : 1 ms
[OGL LOG] init_preconditioner : 0 ms
[OGL LOG] solve : 46 ms
BJompGKOBiCGStab:  Solving for Uy, Initial residual = 0.0608565, Final residual = 8.18954e-07, No Iterations 17
[OGL LOG] init_host_sparsity_pattern : 4 ms
[OGL LOG] matrix not stored update host matrix
[OGL LOG] update_host_mtx : 1 ms
[OGL LOG] matrix is not yet sorted, sorting host matrix
[OGL LOG] sort_host_mtx_sparsity_pattern : 2 ms
[OGL LOG] sort_host_mtx : 1 ms
[OGL LOG] init_preconditioner : 0 ms
[OGL LOG] solve : 50 ms
BJompGKOBiCGStab:  Solving for Uz, Initial residual = 0.184287, Final residual = 7.16207e-07, No Iterations 18
[OGL LOG] init_preconditioner : 0 ms
 CG create  precond 
[OGL LOG] solve : 253 ms
BJompGKOCG:  Solving for p, Initial residual = 0.239443, Final residual = 9.29314e-07, No Iterations 189
time step continuity errors : sum local = 4.3148e-09, global = -1.38422e-19, cumulative = -1.65067e-19
[OGL LOG] init_preconditioner : 0 ms
 CG create  precond 
[OGL LOG] solve : 244 ms
BJompGKOCG:  Solving for p, Initial residual = 0.222234, Final residual = 9.7387e-07, No Iterations 183
time step continuity errors : sum local = 4.573e-09, global = 4.81894e-20, cumulative = -1.16877e-19
ExecutionTime = 2.94 s  ClockTime = 3 s

Time = 0.02

Courant Number mean: 0.157058 max: 0.845844
[OGL LOG] init_host_sparsity_pattern : 4 ms
[OGL LOG] matrix not stored update host matrix
[OGL LOG] update_host_mtx : 2 ms
[OGL LOG] matrix is not yet sorted, sorting host matrix
[OGL LOG] sort_host_mtx_sparsity_pattern : 3 ms
[OGL LOG] sort_host_mtx : 1 ms
[OGL LOG] init_preconditioner : 0 ms
[OGL LOG] solve : 42 ms
BJompGKOBiCGStab:  Solving for Ux, Initial residual = 0.0150185, Final residual = 5.10152e-07, No Iterations 15
[OGL LOG] init_host_sparsity_pattern : 4 ms
[OGL LOG] matrix not stored update host matrix
[OGL LOG] update_host_mtx : 1 ms
[OGL LOG] matrix is not yet sorted, sorting host matrix
[OGL LOG] sort_host_mtx_sparsity_pattern : 2 ms
[OGL LOG] sort_host_mtx : 1 ms
[OGL LOG] init_preconditioner : 0 ms
[OGL LOG] solve : 44 ms
BJompGKOBiCGStab:  Solving for Uy, Initial residual = 0.0280961, Final residual = 7.78291e-07, No Iterations 16
[OGL LOG] init_host_sparsity_pattern : 4 ms
[OGL LOG] matrix not stored update host matrix
[OGL LOG] update_host_mtx : 1 ms
[OGL LOG] matrix is not yet sorted, sorting host matrix
[OGL LOG] sort_host_mtx_sparsity_pattern : 2 ms
[OGL LOG] sort_host_mtx : 1 ms
[OGL LOG] init_preconditioner : 0 ms
[OGL LOG] solve : 44 ms
BJompGKOBiCGStab:  Solving for Uz, Initial residual = 0.0757795, Final residual = 8.56241e-07, No Iterations 16
[OGL LOG] init_preconditioner : 0 ms
 CG create  precond 
[OGL LOG] solve : 242 ms
BJompGKOCG:  Solving for p, Initial residual = 0.234643, Final residual = 9.23341e-07, No Iterations 181
time step continuity errors : sum local = 4.23668e-09, global = -1.63989e-19, cumulative = -2.80866e-19
[OGL LOG] init_preconditioner : 0 ms
 CG create  precond 
[OGL LOG] solve : 242 ms
BJompGKOCG:  Solving for p, Initial residual = 0.232863, Final residual = 8.78587e-07, No Iterations 181
time step continuity errors : sum local = 4.03329e-09, global = 9.38964e-20, cumulative = -1.8697e-19
ExecutionTime = 3.59 s  ClockTime = 4 s

End

