/*---------------------------------------------------------------------------*\
  =========                 |
  \\      /  F ield         | OpenFOAM: The Open Source CFD Toolbox
   \\    /   O peration     | Website:  https://openfoam.org
    \\  /    A nd           | Version:  8
     \\/     M anipulation  |
\*---------------------------------------------------------------------------*/
Build  : 8-13d66902f78c
Exec   : icoFoam
Date   : Jul 04 2021
Time   : 10:20:31
Host   : "uc2n445.localdomain"
PID    : 2199819
I/O    : uncollated
Case   : /pfs/data5/home/kit/scc/nq7776/code/OGL_DATA/lidDrivenCavity3D/v0.1-136-g40fef35/f584ccac99/IntelXeonGold6230CPU@2.10GHz/Test_2021-07-04-08:13:47/100/p-BiCGStab-GKO-BJ-omp/lidDrivenCavity3D
nProcs : 1
sigFpe : Enabling floating point exception trapping (FOAM_SIGFPE).
fileModificationChecking : Monitoring run-time modified files using timeStampMaster (fileModificationSkew 10)
allowSystemOperations : Allowing user-supplied system call operations

// * * * * * * * * * * * * * * * * * * * * * * * * * * * * * * * * * * * * * //
Create time

Create mesh for time = 0

Reading transportProperties

Reading field p

Reading field U

Reading/calculating face flux field phi


Starting time loop

Time = 0.001

Courant Number mean: 0 max: 0
nonePBiCGStab:  Solving for Ux, Initial residual = 1, Final residual = 0.0818707, No Iterations 5
nonePBiCGStab:  Solving for Uy, Initial residual = 0, Final residual = 0, No Iterations 0
nonePBiCGStab:  Solving for Uz, Initial residual = 0, Final residual = 0, No Iterations 0
[OGL LOG] init_host_sparsity_pattern : 286 ms
[OGL LOG] matrix not stored update host matrix
[OGL LOG] update_host_mtx : 147 ms
[OGL LOG] matrix is not yet sorted, compute sorting idxs
[OGL LOG] compute_sort : 9035 ms
[OGL LOG] matrix is not yet sorted, sorting host matrix
[OGL LOG] sort_host_mtx_sparsity_pattern : 191 ms
[OGL LOG] sort_host_mtx : 124 ms
[OGL LOG] init_preconditioner : 141 ms
[OGL LOG] solve : 57019 ms
BJompGKOBiCGStab:  Solving for p, Initial residual = 1, Final residual = 1.20384e-07, No Iterations 572
time step continuity errors : sum local = 1.2071e-08, global = -1.92647e-20, cumulative = -1.92647e-20
[OGL LOG] init_preconditioner : 0 ms
[OGL LOG] solve : 52042 ms
BJompGKOBiCGStab:  Solving for p, Initial residual = 0.707461, Final residual = 9.07765e-07, No Iterations 533
time step continuity errors : sum local = 1.21323e-08, global = 5.66035e-21, cumulative = -1.36044e-20
ExecutionTime = 232.15 s  ClockTime = 125 s

Time = 0.002

Courant Number mean: 0.0422155 max: 0.791725
nonePBiCGStab:  Solving for Ux, Initial residual = 0.137856, Final residual = 0.0399991, No Iterations 5
nonePBiCGStab:  Solving for Uy, Initial residual = 0.451754, Final residual = 0.13017, No Iterations 5
nonePBiCGStab:  Solving for Uz, Initial residual = 0.987098, Final residual = 0.323316, No Iterations 5
[OGL LOG] init_preconditioner : 0 ms
[OGL LOG] solve : 52076 ms
BJompGKOBiCGStab:  Solving for p, Initial residual = 0.78972, Final residual = 8.75885e-07, No Iterations 534
time step continuity errors : sum local = 2.06522e-09, global = -3.0826e-21, cumulative = -1.6687e-20
[OGL LOG] init_preconditioner : 0 ms
[OGL LOG] solve : 37085 ms
BJompGKOBiCGStab:  Solving for p, Initial residual = 0.71353, Final residual = 9.67772e-07, No Iterations 379
time step continuity errors : sum local = 1.4486e-09, global = 5.19882e-21, cumulative = -1.14881e-20
ExecutionTime = 411.41 s  ClockTime = 216 s

Time = 0.003

Courant Number mean: 0.0674679 max: 0.89998
nonePBiCGStab:  Solving for Ux, Initial residual = 0.0610741, Final residual = 0.0153044, No Iterations 5
nonePBiCGStab:  Solving for Uy, Initial residual = 0.208732, Final residual = 0.0593878, No Iterations 5
nonePBiCGStab:  Solving for Uz, Initial residual = 0.712387, Final residual = 0.214105, No Iterations 5
[OGL LOG] init_preconditioner : 0 ms
[OGL LOG] solve : 53668 ms
BJompGKOBiCGStab:  Solving for p, Initial residual = 0.797065, Final residual = 9.24892e-07, No Iterations 551
time step continuity errors : sum local = 9.43377e-10, global = 3.06928e-22, cumulative = -1.11812e-20
[OGL LOG] init_preconditioner : 0 ms
[OGL LOG] solve : 51705 ms
BJompGKOBiCGStab:  Solving for p, Initial residual = 0.724838, Final residual = 9.5626e-07, No Iterations 534
time step continuity errors : sum local = 6.77847e-10, global = -9.09374e-21, cumulative = -2.02749e-20
ExecutionTime = 623.01 s  ClockTime = 323 s

Time = 0.004

Courant Number mean: 0.0814744 max: 0.912891
nonePBiCGStab:  Solving for Ux, Initial residual = 0.0387896, Final residual = 0.0107235, No Iterations 5
nonePBiCGStab:  Solving for Uy, Initial residual = 0.14896, Final residual = 0.0502251, No Iterations 5
nonePBiCGStab:  Solving for Uz, Initial residual = 0.493136, Final residual = 0.135271, No Iterations 5
[OGL LOG] init_preconditioner : 0 ms
[OGL LOG] solve : 55951 ms
BJompGKOBiCGStab:  Solving for p, Initial residual = 0.719484, Final residual = 5.39822e-07, No Iterations 574
time step continuity errors : sum local = 2.21684e-09, global = -4.2848e-22, cumulative = -2.07034e-20
[OGL LOG] init_preconditioner : 0 ms
[OGL LOG] solve : 50290 ms
BJompGKOBiCGStab:  Solving for p, Initial residual = 0.619829, Final residual = 8.40465e-07, No Iterations 519
time step continuity errors : sum local = 9.75456e-10, global = 2.32571e-21, cumulative = -1.83777e-20
ExecutionTime = 836.33 s  ClockTime = 430 s

Time = 0.005

Courant Number mean: 0.0922795 max: 0.925557
nonePBiCGStab:  Solving for Ux, Initial residual = 0.0298143, Final residual = 0.00896123, No Iterations 5
nonePBiCGStab:  Solving for Uy, Initial residual = 0.0986498, Final residual = 0.0358183, No Iterations 5
nonePBiCGStab:  Solving for Uz, Initial residual = 0.305409, Final residual = 0.078884, No Iterations 5
[OGL LOG] init_preconditioner : 0 ms
[OGL LOG] solve : 50732 ms
BJompGKOBiCGStab:  Solving for p, Initial residual = 0.757145, Final residual = 9.79403e-07, No Iterations 513
time step continuity errors : sum local = 7.52045e-10, global = 4.42803e-21, cumulative = -1.39497e-20
[OGL LOG] init_preconditioner : 0 ms
[OGL LOG] solve : 51315 ms
BJompGKOBiCGStab:  Solving for p, Initial residual = 0.670833, Final residual = 9.85433e-07, No Iterations 529
time step continuity errors : sum local = 6.83349e-10, global = 2.616e-21, cumulative = -1.13337e-20
ExecutionTime = 1040.45 s  ClockTime = 534 s

End

