/*---------------------------------------------------------------------------*\
  =========                 |
  \\      /  F ield         | OpenFOAM: The Open Source CFD Toolbox
   \\    /   O peration     | Website:  https://openfoam.org
    \\  /    A nd           | Version:  8
     \\/     M anipulation  |
\*---------------------------------------------------------------------------*/
Build  : 8-13d66902f78c
Exec   : icoFoam
Date   : Jul 04 2021
Time   : 07:19:12
Host   : "uc2n420.localdomain"
PID    : 1113567
I/O    : uncollated
Case   : /pfs/data5/home/kit/scc/nq7776/code/OGL_DATA/lidDrivenCavity3D/v0.1-136-g40fef35/f584ccac99/IntelXeonGold6230CPU@2.10GHz/Test_2021-07-04-07:18:41/25/p-BiCGStab-GKO-none-omp/lidDrivenCavity3D
nProcs : 1
sigFpe : Enabling floating point exception trapping (FOAM_SIGFPE).
fileModificationChecking : Monitoring run-time modified files using timeStampMaster (fileModificationSkew 10)
allowSystemOperations : Allowing user-supplied system call operations

// * * * * * * * * * * * * * * * * * * * * * * * * * * * * * * * * * * * * * //
Create time

Create mesh for time = 0

Reading transportProperties

Reading field p

Reading field U

Reading/calculating face flux field phi


Starting time loop

Time = 0.004

Courant Number mean: 0 max: 0
nonePBiCGStab:  Solving for Ux, Initial residual = 1, Final residual = 0.0337517, No Iterations 5
nonePBiCGStab:  Solving for Uy, Initial residual = 0, Final residual = 0, No Iterations 0
nonePBiCGStab:  Solving for Uz, Initial residual = 0, Final residual = 0, No Iterations 0
[OGL LOG] init_host_sparsity_pattern : 4 ms
[OGL LOG] matrix not stored update host matrix
[OGL LOG] update_host_mtx : 2 ms
[OGL LOG] matrix is not yet sorted, compute sorting idxs
[OGL LOG] compute_sort : 106 ms
[OGL LOG] matrix is not yet sorted, sorting host matrix
[OGL LOG] sort_host_mtx_sparsity_pattern : 2 ms
[OGL LOG] sort_host_mtx : 1 ms
[OGL LOG] init_preconditioner : 0 ms
[OGL LOG] solve : 171 ms
noneompGKOBiCGStab:  Solving for p, Initial residual = 1, Final residual = 4.91817e-07, No Iterations 170
time step continuity errors : sum local = 2.88949e-09, global = -1.72416e-20, cumulative = -1.72416e-20
[OGL LOG] init_preconditioner : 0 ms
[OGL LOG] solve : 170 ms
noneompGKOBiCGStab:  Solving for p, Initial residual = 0.622285, Final residual = 9.69552e-07, No Iterations 170
time step continuity errors : sum local = 2.01417e-08, global = -6.85401e-20, cumulative = -8.57817e-20
ExecutionTime = 0.58 s  ClockTime = 0 s

Time = 0.008

Courant Number mean: 0.084228 max: 0.621061
nonePBiCGStab:  Solving for Ux, Initial residual = 0.149589, Final residual = 0.00942688, No Iterations 5
nonePBiCGStab:  Solving for Uy, Initial residual = 0.281195, Final residual = 0.0142202, No Iterations 5
nonePBiCGStab:  Solving for Uz, Initial residual = 0.93327, Final residual = 0.05111, No Iterations 5
[OGL LOG] init_preconditioner : 0 ms
[OGL LOG] solve : 170 ms
noneompGKOBiCGStab:  Solving for p, Initial residual = 0.518043, Final residual = 6.69433e-07, No Iterations 171
time step continuity errors : sum local = 8.48573e-08, global = 7.10552e-20, cumulative = -1.47265e-20
[OGL LOG] init_preconditioner : 0 ms
[OGL LOG] solve : 165 ms
noneompGKOBiCGStab:  Solving for p, Initial residual = 0.415912, Final residual = 4.47074e-07, No Iterations 166
time step continuity errors : sum local = 1.28221e-07, global = -1.38116e-19, cumulative = -1.52843e-19
ExecutionTime = 0.93 s  ClockTime = 1 s

Time = 0.012

Courant Number mean: 0.124051 max: 0.792234
nonePBiCGStab:  Solving for Ux, Initial residual = 0.0424886, Final residual = 0.00204567, No Iterations 5
nonePBiCGStab:  Solving for Uy, Initial residual = 0.0761753, Final residual = 0.00263716, No Iterations 5
nonePBiCGStab:  Solving for Uz, Initial residual = 0.142997, Final residual = 0.00669139, No Iterations 5
[OGL LOG] init_preconditioner : 0 ms
[OGL LOG] solve : 172 ms
noneompGKOBiCGStab:  Solving for p, Initial residual = 0.279259, Final residual = 7.64061e-07, No Iterations 173
time step continuity errors : sum local = 1.21859e-08, global = -7.96773e-20, cumulative = -2.3252e-19
[OGL LOG] init_preconditioner : 0 ms
[OGL LOG] solve : 169 ms
noneompGKOBiCGStab:  Solving for p, Initial residual = 0.224072, Final residual = 7.89926e-07, No Iterations 169
time step continuity errors : sum local = 1.64769e-08, global = -1.00428e-19, cumulative = -3.32948e-19
ExecutionTime = 1.28 s  ClockTime = 1 s

Time = 0.016

Courant Number mean: 0.142529 max: 0.824384
nonePBiCGStab:  Solving for Ux, Initial residual = 0.0219015, Final residual = 0.000752601, No Iterations 5
nonePBiCGStab:  Solving for Uy, Initial residual = 0.0474749, Final residual = 0.00097547, No Iterations 5
nonePBiCGStab:  Solving for Uz, Initial residual = 0.0928322, Final residual = 0.00325586, No Iterations 5
[OGL LOG] init_preconditioner : 0 ms
[OGL LOG] solve : 163 ms
noneompGKOBiCGStab:  Solving for p, Initial residual = 0.138554, Final residual = 7.76533e-07, No Iterations 164
time step continuity errors : sum local = 1.20401e-08, global = 2.75713e-20, cumulative = -3.05377e-19
[OGL LOG] init_preconditioner : 0 ms
[OGL LOG] solve : 162 ms
noneompGKOBiCGStab:  Solving for p, Initial residual = 0.106562, Final residual = 8.23466e-07, No Iterations 162
time step continuity errors : sum local = 7.09054e-09, global = -2.56981e-20, cumulative = -3.31075e-19
ExecutionTime = 1.63 s  ClockTime = 1 s

Time = 0.02

Courant Number mean: 0.154857 max: 0.843613
nonePBiCGStab:  Solving for Ux, Initial residual = 0.0136621, Final residual = 0.000405436, No Iterations 5
nonePBiCGStab:  Solving for Uy, Initial residual = 0.0288074, Final residual = 0.000728117, No Iterations 5
nonePBiCGStab:  Solving for Uz, Initial residual = 0.0552063, Final residual = 0.00172266, No Iterations 5
[OGL LOG] init_preconditioner : 0 ms
[OGL LOG] solve : 154 ms
noneompGKOBiCGStab:  Solving for p, Initial residual = 0.0654215, Final residual = 8.38797e-07, No Iterations 154
time step continuity errors : sum local = 1.21616e-08, global = 1.81644e-20, cumulative = -3.1291e-19
[OGL LOG] init_preconditioner : 0 ms
[OGL LOG] solve : 152 ms
noneompGKOBiCGStab:  Solving for p, Initial residual = 0.051081, Final residual = 8.78641e-07, No Iterations 153
time step continuity errors : sum local = 1.56221e-08, global = -6.71098e-20, cumulative = -3.8002e-19
ExecutionTime = 1.95 s  ClockTime = 2 s

End

