/*---------------------------------------------------------------------------*\
  =========                 |
  \\      /  F ield         | OpenFOAM: The Open Source CFD Toolbox
   \\    /   O peration     | Website:  https://openfoam.org
    \\  /    A nd           | Version:  8
     \\/     M anipulation  |
\*---------------------------------------------------------------------------*/
Build  : 8-13d66902f78c
Exec   : icoFoam
Date   : Jul 04 2021
Time   : 09:30:58
Host   : "uc2n445.localdomain"
PID    : 2195951
I/O    : uncollated
Case   : /pfs/data5/home/kit/scc/nq7776/code/OGL_DATA/lidDrivenCavity3D/v0.1-136-g40fef35/f584ccac99/IntelXeonGold6230CPU@2.10GHz/Test_2021-07-04-08:13:47/75/p-BiCGStab-GKO-BJ-omp/lidDrivenCavity3D
nProcs : 1
sigFpe : Enabling floating point exception trapping (FOAM_SIGFPE).
fileModificationChecking : Monitoring run-time modified files using timeStampMaster (fileModificationSkew 10)
allowSystemOperations : Allowing user-supplied system call operations

// * * * * * * * * * * * * * * * * * * * * * * * * * * * * * * * * * * * * * //
Create time

Create mesh for time = 0

Reading transportProperties

Reading field p

Reading field U

Reading/calculating face flux field phi


Starting time loop

Time = 0.00133333

Courant Number mean: 0 max: 0
nonePBiCGStab:  Solving for Ux, Initial residual = 1, Final residual = 0.0730231, No Iterations 5
nonePBiCGStab:  Solving for Uy, Initial residual = 0, Final residual = 0, No Iterations 0
nonePBiCGStab:  Solving for Uz, Initial residual = 0, Final residual = 0, No Iterations 0
[OGL LOG] init_host_sparsity_pattern : 124 ms
[OGL LOG] matrix not stored update host matrix
[OGL LOG] update_host_mtx : 63 ms
[OGL LOG] matrix is not yet sorted, compute sorting idxs
[OGL LOG] compute_sort : 3700 ms
[OGL LOG] matrix is not yet sorted, sorting host matrix
[OGL LOG] sort_host_mtx_sparsity_pattern : 82 ms
[OGL LOG] sort_host_mtx : 53 ms
[OGL LOG] init_preconditioner : 21 ms
[OGL LOG] solve : 6868 ms
BJompGKOBiCGStab:  Solving for p, Initial residual = 1, Final residual = 4.64271e-07, No Iterations 415
time step continuity errors : sum local = 3.75427e-09, global = 5.36811e-21, cumulative = 5.36811e-21
[OGL LOG] init_preconditioner : 0 ms
[OGL LOG] solve : 6706 ms
BJompGKOBiCGStab:  Solving for p, Initial residual = 0.697113, Final residual = 9.18802e-07, No Iterations 412
time step continuity errors : sum local = 1.25023e-07, global = -1.77252e-21, cumulative = 3.59559e-21
ExecutionTime = 114.68 s  ClockTime = 20 s

Time = 0.00266667

Courant Number mean: 0.0508076 max: 0.767232
nonePBiCGStab:  Solving for Ux, Initial residual = 0.140596, Final residual = 0.0324551, No Iterations 5
nonePBiCGStab:  Solving for Uy, Initial residual = 0.41364, Final residual = 0.0923365, No Iterations 5
nonePBiCGStab:  Solving for Uz, Initial residual = 0.982687, Final residual = 0.24989, No Iterations 5
[OGL LOG] init_preconditioner : 0 ms
[OGL LOG] solve : 6505 ms
BJompGKOBiCGStab:  Solving for p, Initial residual = 0.746873, Final residual = 9.50889e-07, No Iterations 389
time step continuity errors : sum local = 5.05148e-09, global = 3.99637e-21, cumulative = 7.59196e-21
[OGL LOG] init_preconditioner : 0 ms
[OGL LOG] solve : 6455 ms
BJompGKOBiCGStab:  Solving for p, Initial residual = 0.668096, Final residual = 3.72383e-07, No Iterations 387
time step continuity errors : sum local = 1.53657e-07, global = 1.37645e-21, cumulative = 8.96841e-21
ExecutionTime = 218.68 s  ClockTime = 34 s

Time = 0.004

Courant Number mean: 0.0796128 max: 0.886021
nonePBiCGStab:  Solving for Ux, Initial residual = 0.0584459, Final residual = 0.0111468, No Iterations 5
nonePBiCGStab:  Solving for Uy, Initial residual = 0.171976, Final residual = 0.0398968, No Iterations 5
nonePBiCGStab:  Solving for Uz, Initial residual = 0.609974, Final residual = 0.141901, No Iterations 5
[OGL LOG] init_preconditioner : 0 ms
[OGL LOG] solve : 7249 ms
BJompGKOBiCGStab:  Solving for p, Initial residual = 0.730357, Final residual = 9.33196e-07, No Iterations 434
time step continuity errors : sum local = 1.09824e-09, global = -1.69134e-20, cumulative = -7.94501e-21
[OGL LOG] init_preconditioner : 0 ms
[OGL LOG] solve : 7100 ms
BJompGKOBiCGStab:  Solving for p, Initial residual = 0.660912, Final residual = 6.53144e-07, No Iterations 427
time step continuity errors : sum local = 4.55555e-09, global = 7.19999e-21, cumulative = -7.45012e-22
ExecutionTime = 333.76 s  ClockTime = 49 s

Time = 0.00533333

Courant Number mean: 0.0948098 max: 0.902547
nonePBiCGStab:  Solving for Ux, Initial residual = 0.0345927, Final residual = 0.00682949, No Iterations 5
nonePBiCGStab:  Solving for Uy, Initial residual = 0.119556, Final residual = 0.029821, No Iterations 5
nonePBiCGStab:  Solving for Uz, Initial residual = 0.386168, Final residual = 0.0810421, No Iterations 5
[OGL LOG] init_preconditioner : 0 ms
[OGL LOG] solve : 7038 ms
BJompGKOBiCGStab:  Solving for p, Initial residual = 0.609815, Final residual = 9.14677e-07, No Iterations 425
time step continuity errors : sum local = 1.16805e-09, global = -1.57997e-20, cumulative = -1.65447e-20
[OGL LOG] init_preconditioner : 0 ms
[OGL LOG] solve : 6599 ms
BJompGKOBiCGStab:  Solving for p, Initial residual = 0.521122, Final residual = 9.7615e-07, No Iterations 395
time step continuity errors : sum local = 1.40492e-09, global = 2.20533e-21, cumulative = -1.43394e-20
ExecutionTime = 443.15 s  ClockTime = 63 s

Time = 0.00666667

Courant Number mean: 0.107176 max: 0.916756
nonePBiCGStab:  Solving for Ux, Initial residual = 0.0257316, Final residual = 0.00503116, No Iterations 5
nonePBiCGStab:  Solving for Uy, Initial residual = 0.0750494, Final residual = 0.020826, No Iterations 5
nonePBiCGStab:  Solving for Uz, Initial residual = 0.212695, Final residual = 0.0495451, No Iterations 5
[OGL LOG] init_preconditioner : 0 ms
[OGL LOG] solve : 6389 ms
BJompGKOBiCGStab:  Solving for p, Initial residual = 0.629312, Final residual = 4.6558e-07, No Iterations 386
time step continuity errors : sum local = 4.12887e-10, global = -5.82185e-21, cumulative = -2.01613e-20
[OGL LOG] init_preconditioner : 0 ms
[OGL LOG] solve : 6971 ms
BJompGKOBiCGStab:  Solving for p, Initial residual = 0.552153, Final residual = 9.41851e-07, No Iterations 415
time step continuity errors : sum local = 7.91568e-10, global = 1.4052e-20, cumulative = -6.10929e-21
ExecutionTime = 550.33 s  ClockTime = 77 s

End

