/*---------------------------------------------------------------------------*\
  =========                 |
  \\      /  F ield         | OpenFOAM: The Open Source CFD Toolbox
   \\    /   O peration     | Website:  https://openfoam.org
    \\  /    A nd           | Version:  8
     \\/     M anipulation  |
\*---------------------------------------------------------------------------*/
Build  : 8-13d66902f78c
Exec   : icoFoam
Date   : Jul 04 2021
Time   : 08:27:21
Host   : "uc2n445.localdomain"
PID    : 2191128
I/O    : uncollated
Case   : /pfs/data5/home/kit/scc/nq7776/code/OGL_DATA/lidDrivenCavity3D/v0.1-136-g40fef35/f584ccac99/IntelXeonGold6230CPU@2.10GHz/Test_2021-07-04-08:13:47/50/p-BiCGStab-GKO-BJ-omp/lidDrivenCavity3D
nProcs : 1
sigFpe : Enabling floating point exception trapping (FOAM_SIGFPE).
fileModificationChecking : Monitoring run-time modified files using timeStampMaster (fileModificationSkew 10)
allowSystemOperations : Allowing user-supplied system call operations

// * * * * * * * * * * * * * * * * * * * * * * * * * * * * * * * * * * * * * //
Create time

Create mesh for time = 0

Reading transportProperties

Reading field p

Reading field U

Reading/calculating face flux field phi


Starting time loop

Time = 0.002

Courant Number mean: 0 max: 0
nonePBiCGStab:  Solving for Ux, Initial residual = 1, Final residual = 0.0592055, No Iterations 5
nonePBiCGStab:  Solving for Uy, Initial residual = 0, Final residual = 0, No Iterations 0
nonePBiCGStab:  Solving for Uz, Initial residual = 0, Final residual = 0, No Iterations 0
[OGL LOG] init_host_sparsity_pattern : 36 ms
[OGL LOG] matrix not stored update host matrix
[OGL LOG] update_host_mtx : 18 ms
[OGL LOG] matrix is not yet sorted, compute sorting idxs
[OGL LOG] compute_sort : 985 ms
[OGL LOG] matrix is not yet sorted, sorting host matrix
[OGL LOG] sort_host_mtx_sparsity_pattern : 23 ms
[OGL LOG] sort_host_mtx : 15 ms
[OGL LOG] init_preconditioner : 18 ms
[OGL LOG] solve : 3411 ms
BJompGKOBiCGStab:  Solving for p, Initial residual = 1, Final residual = 9.53558e-07, No Iterations 281
time step continuity errors : sum local = 2.92948e-09, global = -7.52993e-21, cumulative = -7.52993e-21
[OGL LOG] init_preconditioner : 0 ms
[OGL LOG] solve : 3288 ms
BJompGKOBiCGStab:  Solving for p, Initial residual = 0.676727, Final residual = 9.28234e-07, No Iterations 269
time step continuity errors : sum local = 8.75379e-09, global = 2.10244e-20, cumulative = 1.34945e-20
ExecutionTime = 15.13 s  ClockTime = 8 s

Time = 0.004

Courant Number mean: 0.0636233 max: 0.723792
nonePBiCGStab:  Solving for Ux, Initial residual = 0.144135, Final residual = 0.02192, No Iterations 5
nonePBiCGStab:  Solving for Uy, Initial residual = 0.363931, Final residual = 0.0522818, No Iterations 5
nonePBiCGStab:  Solving for Uz, Initial residual = 0.973599, Final residual = 0.158926, No Iterations 5
[OGL LOG] init_preconditioner : 0 ms
[OGL LOG] solve : 3533 ms
BJompGKOBiCGStab:  Solving for p, Initial residual = 0.668514, Final residual = 9.33355e-07, No Iterations 286
time step continuity errors : sum local = 8.12129e-09, global = -1.33005e-20, cumulative = 1.94e-22
[OGL LOG] init_preconditioner : 0 ms
[OGL LOG] solve : 3113 ms
BJompGKOBiCGStab:  Solving for p, Initial residual = 0.584667, Final residual = 9.48525e-07, No Iterations 255
time step continuity errors : sum local = 7.45033e-09, global = 4.79728e-20, cumulative = 4.81668e-20
ExecutionTime = 28.54 s  ClockTime = 15 s

Time = 0.006

Courant Number mean: 0.0972275 max: 0.862514
nonePBiCGStab:  Solving for Ux, Initial residual = 0.0524164, Final residual = 0.00685505, No Iterations 5
nonePBiCGStab:  Solving for Uy, Initial residual = 0.127053, Final residual = 0.0201192, No Iterations 5
nonePBiCGStab:  Solving for Uz, Initial residual = 0.366619, Final residual = 0.053065, No Iterations 5
[OGL LOG] init_preconditioner : 0 ms
[OGL LOG] solve : 3453 ms
BJompGKOBiCGStab:  Solving for p, Initial residual = 0.594545, Final residual = 8.44669e-08, No Iterations 282
time step continuity errors : sum local = 5.53729e-09, global = -2.19901e-20, cumulative = 2.61768e-20
[OGL LOG] init_preconditioner : 0 ms
[OGL LOG] solve : 3246 ms
BJompGKOBiCGStab:  Solving for p, Initial residual = 0.528703, Final residual = 8.92492e-07, No Iterations 266
time step continuity errors : sum local = 3.50128e-09, global = -2.35469e-21, cumulative = 2.38221e-20
ExecutionTime = 42.06 s  ClockTime = 22 s

Time = 0.008

Courant Number mean: 0.113794 max: 0.88248
nonePBiCGStab:  Solving for Ux, Initial residual = 0.0289576, Final residual = 0.00344482, No Iterations 5
nonePBiCGStab:  Solving for Uy, Initial residual = 0.0844242, Final residual = 0.0109194, No Iterations 5
nonePBiCGStab:  Solving for Uz, Initial residual = 0.229167, Final residual = 0.0297688, No Iterations 5
[OGL LOG] init_preconditioner : 0 ms
[OGL LOG] solve : 3364 ms
BJompGKOBiCGStab:  Solving for p, Initial residual = 0.411429, Final residual = 5.46931e-07, No Iterations 278
time step continuity errors : sum local = 8.45155e-10, global = 2.71456e-20, cumulative = 5.09677e-20
[OGL LOG] init_preconditioner : 0 ms
[OGL LOG] solve : 2968 ms
BJompGKOBiCGStab:  Solving for p, Initial residual = 0.342685, Final residual = 8.00756e-07, No Iterations 243
time step continuity errors : sum local = 6.30905e-09, global = 8.10256e-21, cumulative = 5.90702e-20
ExecutionTime = 54.84 s  ClockTime = 29 s

Time = 0.01

Courant Number mean: 0.127339 max: 0.898877
nonePBiCGStab:  Solving for Ux, Initial residual = 0.0202768, Final residual = 0.00208481, No Iterations 5
nonePBiCGStab:  Solving for Uy, Initial residual = 0.050558, Final residual = 0.00623594, No Iterations 5
nonePBiCGStab:  Solving for Uz, Initial residual = 0.112895, Final residual = 0.0180695, No Iterations 5
[OGL LOG] init_preconditioner : 0 ms
[OGL LOG] solve : 2975 ms
BJompGKOBiCGStab:  Solving for p, Initial residual = 0.354046, Final residual = 4.6964e-07, No Iterations 247
time step continuity errors : sum local = 5.22994e-07, global = 2.50021e-20, cumulative = 8.40723e-20
[OGL LOG] init_preconditioner : 0 ms
[OGL LOG] solve : 3055 ms
BJompGKOBiCGStab:  Solving for p, Initial residual = 0.302281, Final residual = 1.57563e-07, No Iterations 250
time step continuity errors : sum local = 3.22828e-08, global = 2.37705e-20, cumulative = 1.07843e-19
ExecutionTime = 67.01 s  ClockTime = 35 s

End

