/*---------------------------------------------------------------------------*\
  =========                 |
  \\      /  F ield         | OpenFOAM: The Open Source CFD Toolbox
   \\    /   O peration     | Website:  https://openfoam.org
    \\  /    A nd           | Version:  8
     \\/     M anipulation  |
\*---------------------------------------------------------------------------*/
Build  : 8-13d66902f78c
Exec   : icoFoam
Date   : Jul 04 2021
Time   : 09:18:39
Host   : "uc2n423.localdomain"
PID    : 2482846
I/O    : uncollated
Case   : /pfs/data5/home/kit/scc/nq7776/code/OGL_DATA/lidDrivenCavity3D/v0.1-136-g40fef35/f584ccac99/IntelXeonGold6230CPU@2.10GHz/Test_2021-07-04-08:58:23/50/p-U-BiCGStab-GKO-BJ-omp/lidDrivenCavity3D
nProcs : 1
sigFpe : Enabling floating point exception trapping (FOAM_SIGFPE).
fileModificationChecking : Monitoring run-time modified files using timeStampMaster (fileModificationSkew 10)
allowSystemOperations : Allowing user-supplied system call operations

// * * * * * * * * * * * * * * * * * * * * * * * * * * * * * * * * * * * * * //
Create time

Create mesh for time = 0

Reading transportProperties

Reading field p

Reading field U

Reading/calculating face flux field phi


Starting time loop

Time = 0.002

Courant Number mean: 0 max: 0
[OGL LOG] init_host_sparsity_pattern : 35 ms
[OGL LOG] matrix not stored update host matrix
[OGL LOG] update_host_mtx : 18 ms
[OGL LOG] matrix is not yet sorted, compute sorting idxs
[OGL LOG] compute_sort : 988 ms
[OGL LOG] matrix is not yet sorted, sorting host matrix
[OGL LOG] sort_host_mtx_sparsity_pattern : 23 ms
[OGL LOG] sort_host_mtx : 15 ms
[OGL LOG] init_preconditioner : 5 ms
[OGL LOG] solve : 152 ms
BJompGKOBiCGStab:  Solving for Ux, Initial residual = 1, Final residual = 8.40984e-07, No Iterations 31
[OGL LOG] init_host_sparsity_pattern : 35 ms
[OGL LOG] matrix not stored update host matrix
[OGL LOG] update_host_mtx : 18 ms
[OGL LOG] matrix is not yet sorted, sorting host matrix
[OGL LOG] sort_host_mtx_sparsity_pattern : 23 ms
[OGL LOG] sort_host_mtx : 12 ms
[OGL LOG] init_preconditioner : 5 ms
[OGL LOG] solve : 4 ms
BJompGKOBiCGStab:  Solving for Uy, Initial residual = 0, Final residual = 0, No Iterations 0
[OGL LOG] init_host_sparsity_pattern : 33 ms
[OGL LOG] matrix not stored update host matrix
[OGL LOG] update_host_mtx : 16 ms
[OGL LOG] matrix is not yet sorted, sorting host matrix
[OGL LOG] sort_host_mtx_sparsity_pattern : 23 ms
[OGL LOG] sort_host_mtx : 12 ms
[OGL LOG] init_preconditioner : 5 ms
[OGL LOG] solve : 4 ms
BJompGKOBiCGStab:  Solving for Uz, Initial residual = 0, Final residual = 0, No Iterations 0
[OGL LOG] init_host_sparsity_pattern : 33 ms
[OGL LOG] matrix not stored update host matrix
[OGL LOG] update_host_mtx : 18 ms
[OGL LOG] matrix is not yet sorted, sorting host matrix
[OGL LOG] sort_host_mtx_sparsity_pattern : 22 ms
[OGL LOG] sort_host_mtx : 13 ms
[OGL LOG] init_preconditioner : 5 ms
[OGL LOG] solve : 1509 ms
BJompGKOBiCGStab:  Solving for p, Initial residual = 1, Final residual = 6.75597e-07, No Iterations 308
time step continuity errors : sum local = 4.69499e-08, global = 8.00597e-21, cumulative = 8.00597e-21
[OGL LOG] init_preconditioner : 0 ms
[OGL LOG] solve : 1330 ms
BJompGKOBiCGStab:  Solving for p, Initial residual = 0.721586, Final residual = 6.97797e-07, No Iterations 281
time step continuity errors : sum local = 4.77429e-08, global = 1.3474e-21, cumulative = 9.35337e-21
ExecutionTime = 26.36 s  ClockTime = 5 s

Time = 0.004

Courant Number mean: 0.0720722 max: 0.726639
[OGL LOG] init_host_sparsity_pattern : 32 ms
[OGL LOG] matrix not stored update host matrix
[OGL LOG] update_host_mtx : 15 ms
[OGL LOG] matrix is not yet sorted, sorting host matrix
[OGL LOG] sort_host_mtx_sparsity_pattern : 25 ms
[OGL LOG] sort_host_mtx : 13 ms
[OGL LOG] init_preconditioner : 0 ms
[OGL LOG] solve : 124 ms
BJompGKOBiCGStab:  Solving for Ux, Initial residual = 0.203465, Final residual = 5.55783e-07, No Iterations 23
[OGL LOG] init_host_sparsity_pattern : 33 ms
[OGL LOG] matrix not stored update host matrix
[OGL LOG] update_host_mtx : 15 ms
[OGL LOG] matrix is not yet sorted, sorting host matrix
[OGL LOG] sort_host_mtx_sparsity_pattern : 22 ms
[OGL LOG] sort_host_mtx : 12 ms
[OGL LOG] init_preconditioner : 0 ms
[OGL LOG] solve : 168 ms
BJompGKOBiCGStab:  Solving for Uy, Initial residual = 0.61843, Final residual = 9.27626e-07, No Iterations 32
[OGL LOG] init_host_sparsity_pattern : 33 ms
[OGL LOG] matrix not stored update host matrix
[OGL LOG] update_host_mtx : 15 ms
[OGL LOG] matrix is not yet sorted, sorting host matrix
[OGL LOG] sort_host_mtx_sparsity_pattern : 22 ms
[OGL LOG] sort_host_mtx : 12 ms
[OGL LOG] init_preconditioner : 0 ms
[OGL LOG] solve : 164 ms
BJompGKOBiCGStab:  Solving for Uz, Initial residual = 0.536241, Final residual = 9.44743e-07, No Iterations 32
[OGL LOG] init_preconditioner : 0 ms
[OGL LOG] solve : 1260 ms
BJompGKOBiCGStab:  Solving for p, Initial residual = 0.673322, Final residual = 3.68592e-07, No Iterations 269
time step continuity errors : sum local = 1.28071e-09, global = -1.17614e-20, cumulative = -2.40803e-21
[OGL LOG] init_preconditioner : 0 ms
[OGL LOG] solve : 1236 ms
BJompGKOBiCGStab:  Solving for p, Initial residual = 0.598889, Final residual = 7.79488e-07, No Iterations 262
time step continuity errors : sum local = 3.20628e-08, global = 1.31445e-20, cumulative = 1.07364e-20
ExecutionTime = 50.5 s  ClockTime = 8 s

Time = 0.006

Courant Number mean: 0.107408 max: 0.881754
[OGL LOG] init_host_sparsity_pattern : 33 ms
[OGL LOG] matrix not stored update host matrix
[OGL LOG] update_host_mtx : 16 ms
[OGL LOG] matrix is not yet sorted, sorting host matrix
[OGL LOG] sort_host_mtx_sparsity_pattern : 24 ms
[OGL LOG] sort_host_mtx : 13 ms
[OGL LOG] init_preconditioner : 0 ms
[OGL LOG] solve : 107 ms
BJompGKOBiCGStab:  Solving for Ux, Initial residual = 0.0995631, Final residual = 7.15821e-07, No Iterations 21
[OGL LOG] init_host_sparsity_pattern : 33 ms
[OGL LOG] matrix not stored update host matrix
[OGL LOG] update_host_mtx : 15 ms
[OGL LOG] matrix is not yet sorted, sorting host matrix
[OGL LOG] sort_host_mtx_sparsity_pattern : 22 ms
[OGL LOG] sort_host_mtx : 13 ms
[OGL LOG] init_preconditioner : 0 ms
[OGL LOG] solve : 146 ms
BJompGKOBiCGStab:  Solving for Uy, Initial residual = 0.249987, Final residual = 8.22029e-07, No Iterations 29
[OGL LOG] init_host_sparsity_pattern : 33 ms
[OGL LOG] matrix not stored update host matrix
[OGL LOG] update_host_mtx : 15 ms
[OGL LOG] matrix is not yet sorted, sorting host matrix
[OGL LOG] sort_host_mtx_sparsity_pattern : 22 ms
[OGL LOG] sort_host_mtx : 12 ms
[OGL LOG] init_preconditioner : 0 ms
[OGL LOG] solve : 160 ms
BJompGKOBiCGStab:  Solving for Uz, Initial residual = 0.540847, Final residual = 8.85703e-07, No Iterations 32
[OGL LOG] init_preconditioner : 0 ms
[OGL LOG] solve : 1312 ms
BJompGKOBiCGStab:  Solving for p, Initial residual = 0.606891, Final residual = 9.39474e-07, No Iterations 277
time step continuity errors : sum local = 7.25358e-09, global = -2.15652e-20, cumulative = -1.08287e-20
[OGL LOG] init_preconditioner : 0 ms
[OGL LOG] solve : 1217 ms
BJompGKOBiCGStab:  Solving for p, Initial residual = 0.560876, Final residual = 7.63815e-07, No Iterations 259
time step continuity errors : sum local = 1.00771e-08, global = -1.04356e-20, cumulative = -2.12643e-20
ExecutionTime = 74.58 s  ClockTime = 11 s

Time = 0.008

Courant Number mean: 0.123244 max: 0.890103
[OGL LOG] init_host_sparsity_pattern : 33 ms
[OGL LOG] matrix not stored update host matrix
[OGL LOG] update_host_mtx : 16 ms
[OGL LOG] matrix is not yet sorted, sorting host matrix
[OGL LOG] sort_host_mtx_sparsity_pattern : 22 ms
[OGL LOG] sort_host_mtx : 12 ms
[OGL LOG] init_preconditioner : 0 ms
[OGL LOG] solve : 125 ms
BJompGKOBiCGStab:  Solving for Ux, Initial residual = 0.0341396, Final residual = 7.89544e-07, No Iterations 25
[OGL LOG] init_host_sparsity_pattern : 33 ms
[OGL LOG] matrix not stored update host matrix
[OGL LOG] update_host_mtx : 15 ms
[OGL LOG] matrix is not yet sorted, sorting host matrix
[OGL LOG] sort_host_mtx_sparsity_pattern : 22 ms
[OGL LOG] sort_host_mtx : 12 ms
[OGL LOG] init_preconditioner : 0 ms
[OGL LOG] solve : 139 ms
BJompGKOBiCGStab:  Solving for Uy, Initial residual = 0.13238, Final residual = 8.1523e-07, No Iterations 28
[OGL LOG] init_host_sparsity_pattern : 33 ms
[OGL LOG] matrix not stored update host matrix
[OGL LOG] update_host_mtx : 15 ms
[OGL LOG] matrix is not yet sorted, sorting host matrix
[OGL LOG] sort_host_mtx_sparsity_pattern : 22 ms
[OGL LOG] sort_host_mtx : 12 ms
[OGL LOG] init_preconditioner : 0 ms
[OGL LOG] solve : 169 ms
BJompGKOBiCGStab:  Solving for Uz, Initial residual = 0.471958, Final residual = 9.32592e-07, No Iterations 31
[OGL LOG] init_preconditioner : 0 ms
[OGL LOG] solve : 1359 ms
BJompGKOBiCGStab:  Solving for p, Initial residual = 0.423028, Final residual = 8.38478e-07, No Iterations 279
time step continuity errors : sum local = 1.72206e-09, global = -4.21719e-21, cumulative = -2.54815e-20
[OGL LOG] init_preconditioner : 0 ms
[OGL LOG] solve : 1248 ms
BJompGKOBiCGStab:  Solving for p, Initial residual = 0.368363, Final residual = 8.48387e-07, No Iterations 266
time step continuity errors : sum local = 1.91985e-09, global = 3.28691e-20, cumulative = 7.38761e-21
ExecutionTime = 99.44 s  ClockTime = 15 s

Time = 0.01

Courant Number mean: 0.136096 max: 0.906942
[OGL LOG] init_host_sparsity_pattern : 33 ms
[OGL LOG] matrix not stored update host matrix
[OGL LOG] update_host_mtx : 17 ms
[OGL LOG] matrix is not yet sorted, sorting host matrix
[OGL LOG] sort_host_mtx_sparsity_pattern : 23 ms
[OGL LOG] sort_host_mtx : 12 ms
[OGL LOG] init_preconditioner : 0 ms
[OGL LOG] solve : 127 ms
BJompGKOBiCGStab:  Solving for Ux, Initial residual = 0.0230744, Final residual = 7.33228e-07, No Iterations 24
[OGL LOG] init_host_sparsity_pattern : 33 ms
[OGL LOG] matrix not stored update host matrix
[OGL LOG] update_host_mtx : 15 ms
[OGL LOG] matrix is not yet sorted, sorting host matrix
[OGL LOG] sort_host_mtx_sparsity_pattern : 22 ms
[OGL LOG] sort_host_mtx : 12 ms
[OGL LOG] init_preconditioner : 0 ms
[OGL LOG] solve : 131 ms
BJompGKOBiCGStab:  Solving for Uy, Initial residual = 0.0484071, Final residual = 9.77083e-07, No Iterations 25
[OGL LOG] init_host_sparsity_pattern : 33 ms
[OGL LOG] matrix not stored update host matrix
[OGL LOG] update_host_mtx : 15 ms
[OGL LOG] matrix is not yet sorted, sorting host matrix
[OGL LOG] sort_host_mtx_sparsity_pattern : 22 ms
[OGL LOG] sort_host_mtx : 12 ms
[OGL LOG] init_preconditioner : 0 ms
[OGL LOG] solve : 142 ms
BJompGKOBiCGStab:  Solving for Uz, Initial residual = 0.159145, Final residual = 8.63104e-07, No Iterations 28
[OGL LOG] init_preconditioner : 0 ms
[OGL LOG] solve : 1409 ms
BJompGKOBiCGStab:  Solving for p, Initial residual = 0.361669, Final residual = 9.94364e-07, No Iterations 294
time step continuity errors : sum local = 1.78834e-09, global = 5.87665e-20, cumulative = 6.61541e-20
[OGL LOG] init_preconditioner : 0 ms
[OGL LOG] solve : 1227 ms
BJompGKOBiCGStab:  Solving for p, Initial residual = 0.333165, Final residual = 9.89108e-07, No Iterations 259
time step continuity errors : sum local = 1.46503e-09, global = 2.49271e-20, cumulative = 9.10812e-20
ExecutionTime = 124.26 s  ClockTime = 18 s

End

