/*---------------------------------------------------------------------------*\
  =========                 |
  \\      /  F ield         | OpenFOAM: The Open Source CFD Toolbox
   \\    /   O peration     | Website:  https://openfoam.org
    \\  /    A nd           | Version:  8
     \\/     M anipulation  |
\*---------------------------------------------------------------------------*/
Build  : 8-13d66902f78c
Exec   : icoFoam
Date   : Jul 04 2021
Time   : 09:05:09
Host   : "uc2n423.localdomain"
PID    : 2480121
I/O    : uncollated
Case   : /pfs/data5/home/kit/scc/nq7776/code/OGL_DATA/lidDrivenCavity3D/v0.1-136-g40fef35/f584ccac99/IntelXeonGold6230CPU@2.10GHz/Test_2021-07-04-08:58:23/25/p-U-BiCGStab-GKO-BJ-omp/lidDrivenCavity3D
nProcs : 1
sigFpe : Enabling floating point exception trapping (FOAM_SIGFPE).
fileModificationChecking : Monitoring run-time modified files using timeStampMaster (fileModificationSkew 10)
allowSystemOperations : Allowing user-supplied system call operations

// * * * * * * * * * * * * * * * * * * * * * * * * * * * * * * * * * * * * * //
Create time

Create mesh for time = 0

Reading transportProperties

Reading field p

Reading field U

Reading/calculating face flux field phi


Starting time loop

Time = 0.004

Courant Number mean: 0 max: 0
[OGL LOG] init_host_sparsity_pattern : 4 ms
[OGL LOG] matrix not stored update host matrix
[OGL LOG] update_host_mtx : 2 ms
[OGL LOG] matrix is not yet sorted, compute sorting idxs
[OGL LOG] compute_sort : 105 ms
[OGL LOG] matrix is not yet sorted, sorting host matrix
[OGL LOG] sort_host_mtx_sparsity_pattern : 2 ms
[OGL LOG] sort_host_mtx : 1 ms
[OGL LOG] init_preconditioner : 19 ms
[OGL LOG] solve : 69 ms
BJompGKOBiCGStab:  Solving for Ux, Initial residual = 1, Final residual = 6.47745e-07, No Iterations 22
[OGL LOG] init_host_sparsity_pattern : 6 ms
[OGL LOG] matrix not stored update host matrix
[OGL LOG] update_host_mtx : 2 ms
[OGL LOG] matrix is not yet sorted, sorting host matrix
[OGL LOG] sort_host_mtx_sparsity_pattern : 3 ms
[OGL LOG] sort_host_mtx : 1 ms
[OGL LOG] init_preconditioner : 0 ms
[OGL LOG] solve : 0 ms
BJompGKOBiCGStab:  Solving for Uy, Initial residual = 0, Final residual = 0, No Iterations 0
[OGL LOG] init_host_sparsity_pattern : 6 ms
[OGL LOG] matrix not stored update host matrix
[OGL LOG] update_host_mtx : 1 ms
[OGL LOG] matrix is not yet sorted, sorting host matrix
[OGL LOG] sort_host_mtx_sparsity_pattern : 2 ms
[OGL LOG] sort_host_mtx : 1 ms
[OGL LOG] init_preconditioner : 0 ms
[OGL LOG] solve : 0 ms
BJompGKOBiCGStab:  Solving for Uz, Initial residual = 0, Final residual = 0, No Iterations 0
[OGL LOG] init_host_sparsity_pattern : 5 ms
[OGL LOG] matrix not stored update host matrix
[OGL LOG] update_host_mtx : 2 ms
[OGL LOG] matrix is not yet sorted, sorting host matrix
[OGL LOG] sort_host_mtx_sparsity_pattern : 2 ms
[OGL LOG] sort_host_mtx : 1 ms
[OGL LOG] init_preconditioner : 0 ms
[OGL LOG] solve : 133 ms
BJompGKOBiCGStab:  Solving for p, Initial residual = 1, Final residual = 8.60037e-07, No Iterations 140
time step continuity errors : sum local = 9.01047e-08, global = -1.32556e-20, cumulative = -1.32556e-20
[OGL LOG] init_preconditioner : 0 ms
[OGL LOG] solve : 124 ms
BJompGKOBiCGStab:  Solving for p, Initial residual = 0.644088, Final residual = 9.75776e-07, No Iterations 129
time step continuity errors : sum local = 3.16917e-07, global = -4.18532e-20, cumulative = -5.51088e-20
ExecutionTime = 22.87 s  ClockTime = 1 s

Time = 0.008

Courant Number mean: 0.0870974 max: 0.619854
[OGL LOG] init_host_sparsity_pattern : 5 ms
[OGL LOG] matrix not stored update host matrix
[OGL LOG] update_host_mtx : 1 ms
[OGL LOG] matrix is not yet sorted, sorting host matrix
[OGL LOG] sort_host_mtx_sparsity_pattern : 2 ms
[OGL LOG] sort_host_mtx : 1 ms
[OGL LOG] init_preconditioner : 0 ms
[OGL LOG] solve : 18 ms
BJompGKOBiCGStab:  Solving for Ux, Initial residual = 0.238945, Final residual = 8.63395e-07, No Iterations 19
[OGL LOG] init_host_sparsity_pattern : 6 ms
[OGL LOG] matrix not stored update host matrix
[OGL LOG] update_host_mtx : 1 ms
[OGL LOG] matrix is not yet sorted, sorting host matrix
[OGL LOG] sort_host_mtx_sparsity_pattern : 2 ms
[OGL LOG] sort_host_mtx : 1 ms
[OGL LOG] init_preconditioner : 0 ms
[OGL LOG] solve : 19 ms
BJompGKOBiCGStab:  Solving for Uy, Initial residual = 0.615474, Final residual = 7.76844e-07, No Iterations 20
[OGL LOG] init_host_sparsity_pattern : 5 ms
[OGL LOG] matrix not stored update host matrix
[OGL LOG] update_host_mtx : 2 ms
[OGL LOG] matrix is not yet sorted, sorting host matrix
[OGL LOG] sort_host_mtx_sparsity_pattern : 2 ms
[OGL LOG] sort_host_mtx : 1 ms
[OGL LOG] init_preconditioner : 0 ms
[OGL LOG] solve : 17 ms
BJompGKOBiCGStab:  Solving for Uz, Initial residual = 0.392175, Final residual = 7.401e-07, No Iterations 19
[OGL LOG] init_preconditioner : 0 ms
[OGL LOG] solve : 111 ms
BJompGKOBiCGStab:  Solving for p, Initial residual = 0.527337, Final residual = 8.17152e-07, No Iterations 125
time step continuity errors : sum local = 2.86381e-07, global = -9.35264e-20, cumulative = -1.48635e-19
[OGL LOG] init_preconditioner : 0 ms
[OGL LOG] solve : 110 ms
BJompGKOBiCGStab:  Solving for p, Initial residual = 0.437519, Final residual = 8.85703e-07, No Iterations 123
time step continuity errors : sum local = 2.29352e-07, global = -2.65295e-20, cumulative = -1.75165e-19
ExecutionTime = 42.24 s  ClockTime = 1 s

Time = 0.012

Courant Number mean: 0.127403 max: 0.798793
[OGL LOG] init_host_sparsity_pattern : 4 ms
[OGL LOG] matrix not stored update host matrix
[OGL LOG] update_host_mtx : 1 ms
[OGL LOG] matrix is not yet sorted, sorting host matrix
[OGL LOG] sort_host_mtx_sparsity_pattern : 2 ms
[OGL LOG] sort_host_mtx : 1 ms
[OGL LOG] init_preconditioner : 0 ms
[OGL LOG] solve : 16 ms
BJompGKOBiCGStab:  Solving for Ux, Initial residual = 0.0920555, Final residual = 9.40397e-07, No Iterations 18
[OGL LOG] init_host_sparsity_pattern : 5 ms
[OGL LOG] matrix not stored update host matrix
[OGL LOG] update_host_mtx : 2 ms
[OGL LOG] matrix is not yet sorted, sorting host matrix
[OGL LOG] sort_host_mtx_sparsity_pattern : 2 ms
[OGL LOG] sort_host_mtx : 1 ms
[OGL LOG] init_preconditioner : 0 ms
[OGL LOG] solve : 16 ms
BJompGKOBiCGStab:  Solving for Uy, Initial residual = 0.145844, Final residual = 9.22837e-07, No Iterations 17
[OGL LOG] init_host_sparsity_pattern : 5 ms
[OGL LOG] matrix not stored update host matrix
[OGL LOG] update_host_mtx : 2 ms
[OGL LOG] matrix is not yet sorted, sorting host matrix
[OGL LOG] sort_host_mtx_sparsity_pattern : 2 ms
[OGL LOG] sort_host_mtx : 1 ms
[OGL LOG] init_preconditioner : 0 ms
[OGL LOG] solve : 17 ms
BJompGKOBiCGStab:  Solving for Uz, Initial residual = 0.33978, Final residual = 6.63886e-07, No Iterations 19
[OGL LOG] init_preconditioner : 0 ms
[OGL LOG] solve : 121 ms
BJompGKOBiCGStab:  Solving for p, Initial residual = 0.30573, Final residual = 9.34523e-07, No Iterations 136
time step continuity errors : sum local = 4.2537e-09, global = -1.33266e-19, cumulative = -3.0843e-19
[OGL LOG] init_preconditioner : 0 ms
[OGL LOG] solve : 108 ms
BJompGKOBiCGStab:  Solving for p, Initial residual = 0.265162, Final residual = 9.82183e-07, No Iterations 121
time step continuity errors : sum local = 5.03909e-09, global = -2.75631e-20, cumulative = -3.35994e-19
ExecutionTime = 61.8 s  ClockTime = 1 s

Time = 0.016

Courant Number mean: 0.145254 max: 0.82722
[OGL LOG] init_host_sparsity_pattern : 4 ms
[OGL LOG] matrix not stored update host matrix
[OGL LOG] update_host_mtx : 1 ms
[OGL LOG] matrix is not yet sorted, sorting host matrix
[OGL LOG] sort_host_mtx_sparsity_pattern : 2 ms
[OGL LOG] sort_host_mtx : 1 ms
[OGL LOG] init_preconditioner : 0 ms
[OGL LOG] solve : 13 ms
BJompGKOBiCGStab:  Solving for Ux, Initial residual = 0.0235039, Final residual = 9.86962e-07, No Iterations 15
[OGL LOG] init_host_sparsity_pattern : 5 ms
[OGL LOG] matrix not stored update host matrix
[OGL LOG] update_host_mtx : 2 ms
[OGL LOG] matrix is not yet sorted, sorting host matrix
[OGL LOG] sort_host_mtx_sparsity_pattern : 2 ms
[OGL LOG] sort_host_mtx : 1 ms
[OGL LOG] init_preconditioner : 0 ms
[OGL LOG] solve : 36 ms
BJompGKOBiCGStab:  Solving for Uy, Initial residual = 0.0608574, Final residual = 8.1961e-07, No Iterations 17
[OGL LOG] init_host_sparsity_pattern : 4 ms
[OGL LOG] matrix not stored update host matrix
[OGL LOG] update_host_mtx : 3 ms
[OGL LOG] matrix is not yet sorted, sorting host matrix
[OGL LOG] sort_host_mtx_sparsity_pattern : 3 ms
[OGL LOG] sort_host_mtx : 1 ms
[OGL LOG] init_preconditioner : 0 ms
[OGL LOG] solve : 22 ms
BJompGKOBiCGStab:  Solving for Uz, Initial residual = 0.184301, Final residual = 7.10235e-07, No Iterations 18
[OGL LOG] init_preconditioner : 0 ms
[OGL LOG] solve : 111 ms
BJompGKOBiCGStab:  Solving for p, Initial residual = 0.239441, Final residual = 9.378e-07, No Iterations 114
time step continuity errors : sum local = 5.81089e-09, global = 1.32666e-19, cumulative = -2.03328e-19
[OGL LOG] init_preconditioner : 0 ms
[OGL LOG] solve : 112 ms
BJompGKOBiCGStab:  Solving for p, Initial residual = 0.222234, Final residual = 9.88542e-07, No Iterations 124
time step continuity errors : sum local = 5.69098e-09, global = -6.85847e-20, cumulative = -2.71913e-19
ExecutionTime = 82.62 s  ClockTime = 2 s

Time = 0.02

Courant Number mean: 0.157058 max: 0.845844
[OGL LOG] init_host_sparsity_pattern : 4 ms
[OGL LOG] matrix not stored update host matrix
[OGL LOG] update_host_mtx : 1 ms
[OGL LOG] matrix is not yet sorted, sorting host matrix
[OGL LOG] sort_host_mtx_sparsity_pattern : 2 ms
[OGL LOG] sort_host_mtx : 1 ms
[OGL LOG] init_preconditioner : 0 ms
[OGL LOG] solve : 19 ms
BJompGKOBiCGStab:  Solving for Ux, Initial residual = 0.0150182, Final residual = 4.72714e-07, No Iterations 15
[OGL LOG] init_host_sparsity_pattern : 5 ms
[OGL LOG] matrix not stored update host matrix
[OGL LOG] update_host_mtx : 2 ms
[OGL LOG] matrix is not yet sorted, sorting host matrix
[OGL LOG] sort_host_mtx_sparsity_pattern : 2 ms
[OGL LOG] sort_host_mtx : 1 ms
[OGL LOG] init_preconditioner : 0 ms
[OGL LOG] solve : 14 ms
BJompGKOBiCGStab:  Solving for Uy, Initial residual = 0.0280962, Final residual = 7.77978e-07, No Iterations 16
[OGL LOG] init_host_sparsity_pattern : 5 ms
[OGL LOG] matrix not stored update host matrix
[OGL LOG] update_host_mtx : 2 ms
[OGL LOG] matrix is not yet sorted, sorting host matrix
[OGL LOG] sort_host_mtx_sparsity_pattern : 2 ms
[OGL LOG] sort_host_mtx : 1 ms
[OGL LOG] init_preconditioner : 0 ms
[OGL LOG] solve : 14 ms
BJompGKOBiCGStab:  Solving for Uz, Initial residual = 0.0757967, Final residual = 8.59137e-07, No Iterations 16
[OGL LOG] init_preconditioner : 0 ms
[OGL LOG] solve : 97 ms
BJompGKOBiCGStab:  Solving for p, Initial residual = 0.234833, Final residual = 9.27936e-07, No Iterations 108
time step continuity errors : sum local = 1.18654e-07, global = 3.77008e-20, cumulative = -2.34212e-19
[OGL LOG] init_preconditioner : 0 ms
[OGL LOG] solve : 95 ms
BJompGKOBiCGStab:  Solving for p, Initial residual = 0.233063, Final residual = 8.86065e-07, No Iterations 105
time step continuity errors : sum local = 4.09e-07, global = -6.76534e-20, cumulative = -3.01865e-19
ExecutionTime = 99.56 s  ClockTime = 2 s

End

