/*---------------------------------------------------------------------------*\
  =========                 |
  \\      /  F ield         | OpenFOAM: The Open Source CFD Toolbox
   \\    /   O peration     | Website:  https://openfoam.org
    \\  /    A nd           | Version:  8
     \\/     M anipulation  |
\*---------------------------------------------------------------------------*/
Build  : 8-13d66902f78c
Exec   : icoFoam
Date   : Jun 27 2021
Time   : 22:55:06
Host   : "uc2n528.localdomain"
PID    : 183025
I/O    : uncollated
Case   : /pfs/data5/home/kit/scc/nq7776/code/OGL_DATA/lidDrivenCavity3D/v0.1-118-gbd9d99d/f584ccac99/IntelXeonGold6230CPU@2.10GHz/Test_2021-06-27-22:26:13/50/p-BiCGStab-GKO-none-omp/lidDrivenCavity3D
nProcs : 1
sigFpe : Enabling floating point exception trapping (FOAM_SIGFPE).
fileModificationChecking : Monitoring run-time modified files using timeStampMaster (fileModificationSkew 10)
allowSystemOperations : Allowing user-supplied system call operations

// * * * * * * * * * * * * * * * * * * * * * * * * * * * * * * * * * * * * * //
Create time

Create mesh for time = 0

Reading transportProperties

Reading field p

Reading field U

Reading/calculating face flux field phi


Starting time loop

Time = 0.002

Courant Number mean: 0 max: 0
nonePBiCGStab:  Solving for Ux, Initial residual = 1, Final residual = 0.0592055, No Iterations 5
nonePBiCGStab:  Solving for Uy, Initial residual = 0, Final residual = 0, No Iterations 0
nonePBiCGStab:  Solving for Uz, Initial residual = 0, Final residual = 0, No Iterations 0
Gingko init_host_sparsity_pattern : 35 ms
 matrix not stored update host matrix 
Gingko update_host_mtx : 18 ms
matrix is not yet sorted, compute sorting idxs 
 compute sorting idxs 860000
Gingko compute_sort : 991 ms
matrix is not yet sorted,  sorting host matrix 
Gingko sort_host_mtx_sparsity_pattern : 23 ms
Gingko sort_host_mtx : 14 ms
Gingko init_preconditioner : 0 ms
 get_precond == NULL
Gingko solve : 1066 ms
 copy back
 get iters 
noneompGKOBiCGStab:  Solving for p, Initial residual = 0, Final residual = 5.67034e-07, No Iterations 354
time step continuity errors : sum local = 5.27309e-08, global = -1.86554e-20, cumulative = -1.86554e-20
Gingko init_preconditioner : 0 ms
 get_precond == NULL
Gingko solve : 896 ms
 copy back
 get iters 
noneompGKOBiCGStab:  Solving for p, Initial residual = 1, Final residual = 9.05482e-07, No Iterations 335
time step continuity errors : sum local = 2.33398e-07, global = 2.59942e-21, cumulative = -1.6056e-20
ExecutionTime = 33.23 s  ClockTime = 4 s

Time = 0.004

Courant Number mean: 0.0636234 max: 0.723792
nonePBiCGStab:  Solving for Ux, Initial residual = 0.144136, Final residual = 0.0219209, No Iterations 5
nonePBiCGStab:  Solving for Uy, Initial residual = 0.363928, Final residual = 0.0523366, No Iterations 5
nonePBiCGStab:  Solving for Uz, Initial residual = 0.97312, Final residual = 0.159436, No Iterations 5
Gingko init_preconditioner : 0 ms
 get_precond == NULL
Gingko solve : 905 ms
 copy back
 get iters 
noneompGKOBiCGStab:  Solving for p, Initial residual = 0.676702, Final residual = 6.68303e-07, No Iterations 342
time step continuity errors : sum local = 7.97052e-07, global = -1.41724e-20, cumulative = -3.02284e-20
Gingko init_preconditioner : 0 ms
 get_precond == NULL
Gingko solve : 948 ms
 copy back
 get iters 
noneompGKOBiCGStab:  Solving for p, Initial residual = 0.668492, Final residual = 9.71639e-07, No Iterations 357
time step continuity errors : sum local = 2.57214e-08, global = 2.32736e-21, cumulative = -2.7901e-20
ExecutionTime = 63.07 s  ClockTime = 6 s

Time = 0.006

Courant Number mean: 0.0972263 max: 0.862513
nonePBiCGStab:  Solving for Ux, Initial residual = 0.0524069, Final residual = 0.00685842, No Iterations 5
nonePBiCGStab:  Solving for Uy, Initial residual = 0.127135, Final residual = 0.020204, No Iterations 5
nonePBiCGStab:  Solving for Uz, Initial residual = 0.366469, Final residual = 0.0542161, No Iterations 5
Gingko init_preconditioner : 0 ms
 get_precond == NULL
Gingko solve : 924 ms
 copy back
 get iters 
noneompGKOBiCGStab:  Solving for p, Initial residual = 0.584701, Final residual = 9.39727e-07, No Iterations 350
time step continuity errors : sum local = 7.54683e-09, global = 1.26525e-20, cumulative = -1.52485e-20
Gingko init_preconditioner : 0 ms
 get_precond == NULL
Gingko solve : 904 ms
 copy back
 get iters 
noneompGKOBiCGStab:  Solving for p, Initial residual = 0.594601, Final residual = 3.50227e-07, No Iterations 341
time step continuity errors : sum local = 3.07844e-08, global = -1.4373e-20, cumulative = -2.96215e-20
ExecutionTime = 92.49 s  ClockTime = 8 s

Time = 0.008

Courant Number mean: 0.113791 max: 0.882475
nonePBiCGStab:  Solving for Ux, Initial residual = 0.028954, Final residual = 0.003444, No Iterations 5
nonePBiCGStab:  Solving for Uy, Initial residual = 0.084449, Final residual = 0.0109442, No Iterations 5
nonePBiCGStab:  Solving for Uz, Initial residual = 0.229837, Final residual = 0.030274, No Iterations 5
Gingko init_preconditioner : 0 ms
 get_precond == NULL
Gingko solve : 912 ms
 copy back
 get iters 
noneompGKOBiCGStab:  Solving for p, Initial residual = 0.528756, Final residual = 9.67215e-07, No Iterations 357
time step continuity errors : sum local = 3.75324e-08, global = 3.59639e-21, cumulative = -2.60251e-20
Gingko init_preconditioner : 0 ms
 get_precond == NULL
Gingko solve : 905 ms
 copy back
 get iters 
noneompGKOBiCGStab:  Solving for p, Initial residual = 0.41143, Final residual = 8.79027e-07, No Iterations 355
time step continuity errors : sum local = 8.63775e-09, global = 5.68779e-20, cumulative = 3.08528e-20
ExecutionTime = 121.74 s  ClockTime = 10 s

Time = 0.01

Courant Number mean: 0.127336 max: 0.898873
nonePBiCGStab:  Solving for Ux, Initial residual = 0.020275, Final residual = 0.0020875, No Iterations 5
nonePBiCGStab:  Solving for Uy, Initial residual = 0.0505743, Final residual = 0.00625526, No Iterations 5
nonePBiCGStab:  Solving for Uz, Initial residual = 0.113029, Final residual = 0.0182923, No Iterations 5
Gingko init_preconditioner : 0 ms
 get_precond == NULL
Gingko solve : 861 ms
 copy back
 get iters 
noneompGKOBiCGStab:  Solving for p, Initial residual = 0.342661, Final residual = 1.55337e-07, No Iterations 338
time step continuity errors : sum local = 5.71198e-08, global = -6.81681e-21, cumulative = 2.4036e-20
Gingko init_preconditioner : 0 ms
 get_precond == NULL
Gingko solve : 858 ms
 copy back
 get iters 
noneompGKOBiCGStab:  Solving for p, Initial residual = 0.354024, Final residual = 1.84002e-08, No Iterations 331
time step continuity errors : sum local = 1.67997e-07, global = -3.80928e-20, cumulative = -1.40568e-20
ExecutionTime = 149.44 s  ClockTime = 12 s

End

