/*---------------------------------------------------------------------------*\
  =========                 |
  \\      /  F ield         | OpenFOAM: The Open Source CFD Toolbox
   \\    /   O peration     | Website:  https://openfoam.org
    \\  /    A nd           | Version:  8
     \\/     M anipulation  |
\*---------------------------------------------------------------------------*/
Build  : 8-13d66902f78c
Exec   : icoFoam
Date   : Jul 04 2021
Time   : 08:50:28
Host   : "uc2n399.localdomain"
PID    : 2498777
I/O    : uncollated
Case   : /pfs/data5/home/kit/scc/nq7776/code/OGL_DATA/lidDrivenCavity3D/v0.1-136-g40fef35/f584ccac99/IntelXeonGold6230CPU@2.10GHz/Test_2021-07-04-08:36:30/50/p-U-CG-GKO-none-omp/lidDrivenCavity3D
nProcs : 1
sigFpe : Enabling floating point exception trapping (FOAM_SIGFPE).
fileModificationChecking : Monitoring run-time modified files using timeStampMaster (fileModificationSkew 10)
allowSystemOperations : Allowing user-supplied system call operations

// * * * * * * * * * * * * * * * * * * * * * * * * * * * * * * * * * * * * * //
Create time

Create mesh for time = 0

Reading transportProperties

Reading field p

Reading field U

Reading/calculating face flux field phi


Starting time loop

Time = 0.002

Courant Number mean: 0 max: 0
[OGL LOG] init_host_sparsity_pattern : 35 ms
[OGL LOG] matrix not stored update host matrix
[OGL LOG] update_host_mtx : 18 ms
[OGL LOG] matrix is not yet sorted, compute sorting idxs
[OGL LOG] compute_sort : 987 ms
[OGL LOG] matrix is not yet sorted, sorting host matrix
[OGL LOG] sort_host_mtx_sparsity_pattern : 23 ms
[OGL LOG] sort_host_mtx : 15 ms
[OGL LOG] init_preconditioner : 0 ms
[OGL LOG] solve : 125 ms
noneompGKOBiCGStab:  Solving for Ux, Initial residual = 1, Final residual = 8.72813e-07, No Iterations 41
[OGL LOG] init_host_sparsity_pattern : 35 ms
[OGL LOG] matrix not stored update host matrix
[OGL LOG] update_host_mtx : 18 ms
[OGL LOG] matrix is not yet sorted, sorting host matrix
[OGL LOG] sort_host_mtx_sparsity_pattern : 23 ms
[OGL LOG] sort_host_mtx : 13 ms
[OGL LOG] init_preconditioner : 0 ms
[OGL LOG] solve : 3 ms
noneompGKOBiCGStab:  Solving for Uy, Initial residual = 0, Final residual = 0, No Iterations 0
[OGL LOG] init_host_sparsity_pattern : 33 ms
[OGL LOG] matrix not stored update host matrix
[OGL LOG] update_host_mtx : 15 ms
[OGL LOG] matrix is not yet sorted, sorting host matrix
[OGL LOG] sort_host_mtx_sparsity_pattern : 23 ms
[OGL LOG] sort_host_mtx : 13 ms
[OGL LOG] init_preconditioner : 0 ms
[OGL LOG] solve : 3 ms
noneompGKOBiCGStab:  Solving for Uz, Initial residual = 0, Final residual = 0, No Iterations 0
[OGL LOG] init_host_sparsity_pattern : 33 ms
[OGL LOG] matrix not stored update host matrix
[OGL LOG] update_host_mtx : 18 ms
[OGL LOG] matrix is not yet sorted, sorting host matrix
[OGL LOG] sort_host_mtx_sparsity_pattern : 22 ms
[OGL LOG] sort_host_mtx : 14 ms
[OGL LOG] init_preconditioner : 0 ms
[OGL LOG] solve : 664 ms
noneompGKOCG:  Solving for p, Initial residual = 1, Final residual = 9.02139e-07, No Iterations 444
time step continuity errors : sum local = 1.48545e-09, global = 7.52179e-21, cumulative = 7.52179e-21
[OGL LOG] init_preconditioner : 0 ms
[OGL LOG] solve : 607 ms
noneompGKOCG:  Solving for p, Initial residual = 0.721583, Final residual = 9.35118e-07, No Iterations 440
time step continuity errors : sum local = 2.0415e-09, global = 8.14284e-21, cumulative = 1.56646e-20
ExecutionTime = 24.95 s  ClockTime = 4 s

Time = 0.004

Courant Number mean: 0.0720722 max: 0.726639
[OGL LOG] init_host_sparsity_pattern : 33 ms
[OGL LOG] matrix not stored update host matrix
[OGL LOG] update_host_mtx : 19 ms
[OGL LOG] matrix is not yet sorted, sorting host matrix
[OGL LOG] sort_host_mtx_sparsity_pattern : 28 ms
[OGL LOG] sort_host_mtx : 13 ms
[OGL LOG] init_preconditioner : 0 ms
[OGL LOG] solve : 107 ms
noneompGKOBiCGStab:  Solving for Ux, Initial residual = 0.203465, Final residual = 2.66258e-07, No Iterations 39
[OGL LOG] init_host_sparsity_pattern : 33 ms
[OGL LOG] matrix not stored update host matrix
[OGL LOG] update_host_mtx : 15 ms
[OGL LOG] matrix is not yet sorted, sorting host matrix
[OGL LOG] sort_host_mtx_sparsity_pattern : 21 ms
[OGL LOG] sort_host_mtx : 13 ms
[OGL LOG] init_preconditioner : 0 ms
[OGL LOG] solve : 113 ms
noneompGKOBiCGStab:  Solving for Uy, Initial residual = 0.618431, Final residual = 8.01576e-07, No Iterations 40
[OGL LOG] init_host_sparsity_pattern : 33 ms
[OGL LOG] matrix not stored update host matrix
[OGL LOG] update_host_mtx : 15 ms
[OGL LOG] matrix is not yet sorted, sorting host matrix
[OGL LOG] sort_host_mtx_sparsity_pattern : 21 ms
[OGL LOG] sort_host_mtx : 13 ms
[OGL LOG] init_preconditioner : 0 ms
[OGL LOG] solve : 114 ms
noneompGKOBiCGStab:  Solving for Uz, Initial residual = 0.536266, Final residual = 8.61992e-07, No Iterations 40
[OGL LOG] init_preconditioner : 0 ms
[OGL LOG] solve : 639 ms
noneompGKOCG:  Solving for p, Initial residual = 0.673318, Final residual = 9.9649e-07, No Iterations 433
time step continuity errors : sum local = 2.36354e-09, global = 1.64627e-22, cumulative = 1.58293e-20
[OGL LOG] init_preconditioner : 0 ms
[OGL LOG] solve : 654 ms
noneompGKOCG:  Solving for p, Initial residual = 0.598888, Final residual = 9.80391e-07, No Iterations 433
time step continuity errors : sum local = 2.38663e-09, global = 6.14733e-20, cumulative = 7.73025e-20
ExecutionTime = 51.81 s  ClockTime = 6 s

Time = 0.006

Courant Number mean: 0.107408 max: 0.881754
[OGL LOG] init_host_sparsity_pattern : 33 ms
[OGL LOG] matrix not stored update host matrix
[OGL LOG] update_host_mtx : 16 ms
[OGL LOG] matrix is not yet sorted, sorting host matrix
[OGL LOG] sort_host_mtx_sparsity_pattern : 23 ms
[OGL LOG] sort_host_mtx : 13 ms
[OGL LOG] init_preconditioner : 0 ms
[OGL LOG] solve : 97 ms
noneompGKOBiCGStab:  Solving for Ux, Initial residual = 0.0995687, Final residual = 9.83248e-07, No Iterations 35
[OGL LOG] init_host_sparsity_pattern : 33 ms
[OGL LOG] matrix not stored update host matrix
[OGL LOG] update_host_mtx : 15 ms
[OGL LOG] matrix is not yet sorted, sorting host matrix
[OGL LOG] sort_host_mtx_sparsity_pattern : 21 ms
[OGL LOG] sort_host_mtx : 13 ms
[OGL LOG] init_preconditioner : 0 ms
[OGL LOG] solve : 103 ms
noneompGKOBiCGStab:  Solving for Uy, Initial residual = 0.249969, Final residual = 9.25387e-07, No Iterations 37
[OGL LOG] init_host_sparsity_pattern : 33 ms
[OGL LOG] matrix not stored update host matrix
[OGL LOG] update_host_mtx : 15 ms
[OGL LOG] matrix is not yet sorted, sorting host matrix
[OGL LOG] sort_host_mtx_sparsity_pattern : 21 ms
[OGL LOG] sort_host_mtx : 13 ms
[OGL LOG] init_preconditioner : 0 ms
[OGL LOG] solve : 113 ms
noneompGKOBiCGStab:  Solving for Uz, Initial residual = 0.540949, Final residual = 9.89649e-07, No Iterations 40
[OGL LOG] init_preconditioner : 0 ms
[OGL LOG] solve : 650 ms
noneompGKOCG:  Solving for p, Initial residual = 0.606885, Final residual = 9.16933e-07, No Iterations 437
time step continuity errors : sum local = 1.56138e-09, global = 1.2504e-20, cumulative = 8.98066e-20
[OGL LOG] init_preconditioner : 0 ms
[OGL LOG] solve : 651 ms
noneompGKOCG:  Solving for p, Initial residual = 0.560842, Final residual = 9.49032e-07, No Iterations 436
time step continuity errors : sum local = 1.56212e-09, global = -1.55803e-20, cumulative = 7.42263e-20
ExecutionTime = 78.42 s  ClockTime = 8 s

Time = 0.008

Courant Number mean: 0.123244 max: 0.890102
[OGL LOG] init_host_sparsity_pattern : 32 ms
[OGL LOG] matrix not stored update host matrix
[OGL LOG] update_host_mtx : 16 ms
[OGL LOG] matrix is not yet sorted, sorting host matrix
[OGL LOG] sort_host_mtx_sparsity_pattern : 21 ms
[OGL LOG] sort_host_mtx : 13 ms
[OGL LOG] init_preconditioner : 0 ms
[OGL LOG] solve : 87 ms
noneompGKOBiCGStab:  Solving for Ux, Initial residual = 0.0341423, Final residual = 8.30205e-07, No Iterations 31
[OGL LOG] init_host_sparsity_pattern : 33 ms
[OGL LOG] matrix not stored update host matrix
[OGL LOG] update_host_mtx : 15 ms
[OGL LOG] matrix is not yet sorted, sorting host matrix
[OGL LOG] sort_host_mtx_sparsity_pattern : 21 ms
[OGL LOG] sort_host_mtx : 13 ms
[OGL LOG] init_preconditioner : 0 ms
[OGL LOG] solve : 95 ms
noneompGKOBiCGStab:  Solving for Uy, Initial residual = 0.13238, Final residual = 8.69413e-07, No Iterations 34
[OGL LOG] init_host_sparsity_pattern : 33 ms
[OGL LOG] matrix not stored update host matrix
[OGL LOG] update_host_mtx : 15 ms
[OGL LOG] matrix is not yet sorted, sorting host matrix
[OGL LOG] sort_host_mtx_sparsity_pattern : 21 ms
[OGL LOG] sort_host_mtx : 13 ms
[OGL LOG] init_preconditioner : 0 ms
[OGL LOG] solve : 111 ms
noneompGKOBiCGStab:  Solving for Uz, Initial residual = 0.471952, Final residual = 3.13892e-07, No Iterations 40
[OGL LOG] init_preconditioner : 0 ms
[OGL LOG] solve : 642 ms
noneompGKOCG:  Solving for p, Initial residual = 0.423037, Final residual = 9.23977e-07, No Iterations 435
time step continuity errors : sum local = 1.45886e-09, global = -4.07612e-20, cumulative = 3.3465e-20
[OGL LOG] init_preconditioner : 0 ms
[OGL LOG] solve : 644 ms
noneompGKOCG:  Solving for p, Initial residual = 0.368376, Final residual = 9.75468e-07, No Iterations 433
time step continuity errors : sum local = 1.56242e-09, global = 1.14169e-20, cumulative = 4.48819e-20
ExecutionTime = 104.49 s  ClockTime = 10 s

Time = 0.01

Courant Number mean: 0.136096 max: 0.906942
[OGL LOG] init_host_sparsity_pattern : 33 ms
[OGL LOG] matrix not stored update host matrix
[OGL LOG] update_host_mtx : 15 ms
[OGL LOG] matrix is not yet sorted, sorting host matrix
[OGL LOG] sort_host_mtx_sparsity_pattern : 21 ms
[OGL LOG] sort_host_mtx : 13 ms
[OGL LOG] init_preconditioner : 0 ms
[OGL LOG] solve : 82 ms
noneompGKOBiCGStab:  Solving for Ux, Initial residual = 0.0230737, Final residual = 9.728e-07, No Iterations 29
[OGL LOG] init_host_sparsity_pattern : 33 ms
[OGL LOG] matrix not stored update host matrix
[OGL LOG] update_host_mtx : 15 ms
[OGL LOG] matrix is not yet sorted, sorting host matrix
[OGL LOG] sort_host_mtx_sparsity_pattern : 21 ms
[OGL LOG] sort_host_mtx : 13 ms
[OGL LOG] init_preconditioner : 0 ms
[OGL LOG] solve : 90 ms
noneompGKOBiCGStab:  Solving for Uy, Initial residual = 0.0484114, Final residual = 8.06051e-07, No Iterations 32
[OGL LOG] init_host_sparsity_pattern : 33 ms
[OGL LOG] matrix not stored update host matrix
[OGL LOG] update_host_mtx : 15 ms
[OGL LOG] matrix is not yet sorted, sorting host matrix
[OGL LOG] sort_host_mtx_sparsity_pattern : 21 ms
[OGL LOG] sort_host_mtx : 13 ms
[OGL LOG] init_preconditioner : 0 ms
[OGL LOG] solve : 98 ms
noneompGKOBiCGStab:  Solving for Uz, Initial residual = 0.159031, Final residual = 9.73306e-07, No Iterations 35
[OGL LOG] init_preconditioner : 0 ms
[OGL LOG] solve : 635 ms
noneompGKOCG:  Solving for p, Initial residual = 0.361666, Final residual = 9.28249e-07, No Iterations 434
time step continuity errors : sum local = 1.2683e-09, global = 1.77401e-20, cumulative = 6.26221e-20
[OGL LOG] init_preconditioner : 0 ms
[OGL LOG] solve : 631 ms
noneompGKOCG:  Solving for p, Initial residual = 0.33316, Final residual = 9.47844e-07, No Iterations 433
time step continuity errors : sum local = 1.28348e-09, global = -3.02847e-22, cumulative = 6.23192e-20
ExecutionTime = 129.86 s  ClockTime = 12 s

End

