/*---------------------------------------------------------------------------*\
  =========                 |
  \\      /  F ield         | OpenFOAM: The Open Source CFD Toolbox
   \\    /   O peration     | Website:  https://openfoam.org
    \\  /    A nd           | Version:  8
     \\/     M anipulation  |
\*---------------------------------------------------------------------------*/
Build  : 8-13d66902f78c
Exec   : icoFoam
Date   : Jul 04 2021
Time   : 08:19:36
Host   : "uc2n445.localdomain"
PID    : 2186677
I/O    : uncollated
Case   : /pfs/data5/home/kit/scc/nq7776/code/OGL_DATA/lidDrivenCavity3D/v0.1-136-g40fef35/f584ccac99/IntelXeonGold6230CPU@2.10GHz/Test_2021-07-04-08:13:47/25/p-BiCGStab-GKO-BJ-omp/lidDrivenCavity3D
nProcs : 1
sigFpe : Enabling floating point exception trapping (FOAM_SIGFPE).
fileModificationChecking : Monitoring run-time modified files using timeStampMaster (fileModificationSkew 10)
allowSystemOperations : Allowing user-supplied system call operations

// * * * * * * * * * * * * * * * * * * * * * * * * * * * * * * * * * * * * * //
Create time

Create mesh for time = 0

Reading transportProperties

Reading field p

Reading field U

Reading/calculating face flux field phi


Starting time loop

Time = 0.004

Courant Number mean: 0 max: 0
nonePBiCGStab:  Solving for Ux, Initial residual = 1, Final residual = 0.0337517, No Iterations 5
nonePBiCGStab:  Solving for Uy, Initial residual = 0, Final residual = 0, No Iterations 0
nonePBiCGStab:  Solving for Uz, Initial residual = 0, Final residual = 0, No Iterations 0
[OGL LOG] init_host_sparsity_pattern : 4 ms
[OGL LOG] matrix not stored update host matrix
[OGL LOG] update_host_mtx : 2 ms
[OGL LOG] matrix is not yet sorted, compute sorting idxs
[OGL LOG] compute_sort : 106 ms
[OGL LOG] matrix is not yet sorted, sorting host matrix
[OGL LOG] sort_host_mtx_sparsity_pattern : 3 ms
[OGL LOG] sort_host_mtx : 1 ms
[OGL LOG] init_preconditioner : 3 ms
[OGL LOG] solve : 110 ms
BJompGKOBiCGStab:  Solving for p, Initial residual = 1, Final residual = 9.96727e-07, No Iterations 141
time step continuity errors : sum local = 7.06774e-07, global = 1.16972e-20, cumulative = 1.16972e-20
[OGL LOG] init_preconditioner : 0 ms
[OGL LOG] solve : 101 ms
BJompGKOBiCGStab:  Solving for p, Initial residual = 0.622323, Final residual = 6.82852e-07, No Iterations 131
time step continuity errors : sum local = 5.1134e-08, global = -1.52425e-20, cumulative = -3.54533e-21
ExecutionTime = 7.51 s  ClockTime = 0 s

Time = 0.008

Courant Number mean: 0.084228 max: 0.621061
nonePBiCGStab:  Solving for Ux, Initial residual = 0.149592, Final residual = 0.00942734, No Iterations 5
nonePBiCGStab:  Solving for Uy, Initial residual = 0.281198, Final residual = 0.0142355, No Iterations 5
nonePBiCGStab:  Solving for Uz, Initial residual = 0.933257, Final residual = 0.0514563, No Iterations 5
[OGL LOG] init_preconditioner : 0 ms
[OGL LOG] solve : 97 ms
BJompGKOBiCGStab:  Solving for p, Initial residual = 0.518051, Final residual = 7.97308e-07, No Iterations 126
time step continuity errors : sum local = 5.99798e-07, global = 3.07163e-20, cumulative = 2.7171e-20
[OGL LOG] init_preconditioner : 0 ms
[OGL LOG] solve : 88 ms
BJompGKOBiCGStab:  Solving for p, Initial residual = 0.415901, Final residual = 1.6399e-07, No Iterations 122
time step continuity errors : sum local = 2.33369e-07, global = -3.13558e-21, cumulative = 2.40354e-20
ExecutionTime = 13.72 s  ClockTime = 0 s

Time = 0.012

Courant Number mean: 0.124051 max: 0.792234
nonePBiCGStab:  Solving for Ux, Initial residual = 0.0424975, Final residual = 0.00204612, No Iterations 5
nonePBiCGStab:  Solving for Uy, Initial residual = 0.0761556, Final residual = 0.00263713, No Iterations 5
nonePBiCGStab:  Solving for Uz, Initial residual = 0.142754, Final residual = 0.00673907, No Iterations 5
[OGL LOG] init_preconditioner : 0 ms
[OGL LOG] solve : 85 ms
BJompGKOBiCGStab:  Solving for p, Initial residual = 0.279203, Final residual = 2.78173e-07, No Iterations 119
time step continuity errors : sum local = 2.31125e-09, global = -3.69068e-20, cumulative = -1.28714e-20
[OGL LOG] init_preconditioner : 0 ms
[OGL LOG] solve : 91 ms
BJompGKOBiCGStab:  Solving for p, Initial residual = 0.22405, Final residual = 4.33265e-07, No Iterations 127
time step continuity errors : sum local = 2.22719e-08, global = -1.76331e-19, cumulative = -1.89202e-19
ExecutionTime = 19.58 s  ClockTime = 0 s

Time = 0.016

Courant Number mean: 0.142529 max: 0.824384
nonePBiCGStab:  Solving for Ux, Initial residual = 0.0219031, Final residual = 0.000752659, No Iterations 5
nonePBiCGStab:  Solving for Uy, Initial residual = 0.0474715, Final residual = 0.000975565, No Iterations 5
nonePBiCGStab:  Solving for Uz, Initial residual = 0.0927192, Final residual = 0.00329477, No Iterations 5
[OGL LOG] init_preconditioner : 0 ms
[OGL LOG] solve : 83 ms
BJompGKOBiCGStab:  Solving for p, Initial residual = 0.138546, Final residual = 2.82642e-07, No Iterations 115
time step continuity errors : sum local = 1.3288e-09, global = 1.00143e-19, cumulative = -8.90591e-20
[OGL LOG] init_preconditioner : 0 ms
[OGL LOG] solve : 84 ms
BJompGKOBiCGStab:  Solving for p, Initial residual = 0.106554, Final residual = 5.69767e-07, No Iterations 117
time step continuity errors : sum local = 4.07534e-09, global = -8.56445e-20, cumulative = -1.74704e-19
ExecutionTime = 25.2 s  ClockTime = 1 s

Time = 0.02

Courant Number mean: 0.154857 max: 0.843613
nonePBiCGStab:  Solving for Ux, Initial residual = 0.0136632, Final residual = 0.000405293, No Iterations 5
nonePBiCGStab:  Solving for Uy, Initial residual = 0.028805, Final residual = 0.000727664, No Iterations 5
nonePBiCGStab:  Solving for Uz, Initial residual = 0.0551876, Final residual = 0.00174776, No Iterations 5
[OGL LOG] init_preconditioner : 0 ms
[OGL LOG] solve : 85 ms
BJompGKOBiCGStab:  Solving for p, Initial residual = 0.0654172, Final residual = 8.56236e-07, No Iterations 118
time step continuity errors : sum local = 1.05358e-07, global = 7.44871e-21, cumulative = -1.67255e-19
[OGL LOG] init_preconditioner : 0 ms
[OGL LOG] solve : 85 ms
BJompGKOBiCGStab:  Solving for p, Initial residual = 0.0510914, Final residual = 9.09742e-07, No Iterations 118
time step continuity errors : sum local = 2.15896e-07, global = 5.6903e-20, cumulative = -1.10352e-19
ExecutionTime = 30.86 s  ClockTime = 1 s

End

