/*---------------------------------------------------------------------------*\
  =========                 |
  \\      /  F ield         | OpenFOAM: The Open Source CFD Toolbox
   \\    /   O peration     | Website:  https://openfoam.org
    \\  /    A nd           | Version:  8
     \\/     M anipulation  |
\*---------------------------------------------------------------------------*/
Build  : 8-13d66902f78c
Exec   : icoFoam
Date   : Jul 04 2021
Time   : 08:41:59
Host   : "uc2n415.localdomain"
PID    : 2603563
I/O    : uncollated
Case   : /pfs/data5/home/kit/scc/nq7776/code/OGL_DATA/lidDrivenCavity3D/v0.1-136-g40fef35/f584ccac99/IntelXeonGold6230CPU@2.10GHz/Test_2021-07-04-08:36:30/25/p-U-BiCGStab-GKO-none-omp/lidDrivenCavity3D
nProcs : 1
sigFpe : Enabling floating point exception trapping (FOAM_SIGFPE).
fileModificationChecking : Monitoring run-time modified files using timeStampMaster (fileModificationSkew 10)
allowSystemOperations : Allowing user-supplied system call operations

// * * * * * * * * * * * * * * * * * * * * * * * * * * * * * * * * * * * * * //
Create time

Create mesh for time = 0

Reading transportProperties

Reading field p

Reading field U

Reading/calculating face flux field phi


Starting time loop

Time = 0.016

Courant Number mean: 0 max: 0
[OGL LOG] init_host_sparsity_pattern : 4 ms
[OGL LOG] matrix not stored update host matrix
[OGL LOG] update_host_mtx : 2 ms
[OGL LOG] matrix is not yet sorted, compute sorting idxs
[OGL LOG] compute_sort : 105 ms
[OGL LOG] matrix is not yet sorted, sorting host matrix
[OGL LOG] sort_host_mtx_sparsity_pattern : 2 ms
[OGL LOG] sort_host_mtx : 1 ms
[OGL LOG] init_preconditioner : 0 ms
[OGL LOG] solve : 35 ms
noneompGKOBiCGStab:  Solving for Ux, Initial residual = 1, Final residual = 9.17551e-07, No Iterations 42
[OGL LOG] init_host_sparsity_pattern : 5 ms
[OGL LOG] matrix not stored update host matrix
[OGL LOG] update_host_mtx : 2 ms
[OGL LOG] matrix is not yet sorted, sorting host matrix
[OGL LOG] sort_host_mtx_sparsity_pattern : 2 ms
[OGL LOG] sort_host_mtx : 1 ms
[OGL LOG] init_preconditioner : 0 ms
[OGL LOG] solve : 0 ms
noneompGKOBiCGStab:  Solving for Uy, Initial residual = 0, Final residual = 0, No Iterations 0
[OGL LOG] init_host_sparsity_pattern : 5 ms
[OGL LOG] matrix not stored update host matrix
[OGL LOG] update_host_mtx : 1 ms
[OGL LOG] matrix is not yet sorted, sorting host matrix
[OGL LOG] sort_host_mtx_sparsity_pattern : 2 ms
[OGL LOG] sort_host_mtx : 1 ms
[OGL LOG] init_preconditioner : 0 ms
[OGL LOG] solve : 1 ms
noneompGKOBiCGStab:  Solving for Uz, Initial residual = 0, Final residual = 0, No Iterations 0
[OGL LOG] init_host_sparsity_pattern : 4 ms
[OGL LOG] matrix not stored update host matrix
[OGL LOG] update_host_mtx : 1 ms
[OGL LOG] matrix is not yet sorted, sorting host matrix
[OGL LOG] sort_host_mtx_sparsity_pattern : 2 ms
[OGL LOG] sort_host_mtx : 1 ms
[OGL LOG] init_preconditioner : 0 ms
[OGL LOG] solve : 111 ms
noneompGKOBiCGStab:  Solving for p, Initial residual = 1, Final residual = 8.42633e-07, No Iterations 172
time step continuity errors : sum local = 3.00131e-06, global = -4.3384e-20, cumulative = -4.3384e-20
[OGL LOG] init_preconditioner : 0 ms
[OGL LOG] solve : 108 ms
noneompGKOBiCGStab:  Solving for p, Initial residual = 0.752925, Final residual = 6.66721e-07, No Iterations 167
time step continuity errors : sum local = 2.39672e-06, global = 3.8628e-19, cumulative = 3.42896e-19
ExecutionTime = 9.29 s  ClockTime = 1 s

Time = 0.032

Courant Number mean: 0.51472 max: 2.81436
[OGL LOG] init_host_sparsity_pattern : 4 ms
[OGL LOG] matrix not stored update host matrix
[OGL LOG] update_host_mtx : 1 ms
[OGL LOG] matrix is not yet sorted, sorting host matrix
[OGL LOG] sort_host_mtx_sparsity_pattern : 2 ms
[OGL LOG] sort_host_mtx : 1 ms
[OGL LOG] init_preconditioner : 0 ms
[OGL LOG] solve : 25 ms
noneompGKOBiCGStab:  Solving for Ux, Initial residual = 0.237242, Final residual = 8.02279e-07, No Iterations 41
[OGL LOG] init_host_sparsity_pattern : 4 ms
[OGL LOG] matrix not stored update host matrix
[OGL LOG] update_host_mtx : 2 ms
[OGL LOG] matrix is not yet sorted, sorting host matrix
[OGL LOG] sort_host_mtx_sparsity_pattern : 2 ms
[OGL LOG] sort_host_mtx : 1 ms
[OGL LOG] init_preconditioner : 0 ms
[OGL LOG] solve : 25 ms
noneompGKOBiCGStab:  Solving for Uy, Initial residual = 0.587626, Final residual = 8.43384e-07, No Iterations 43
[OGL LOG] init_host_sparsity_pattern : 4 ms
[OGL LOG] matrix not stored update host matrix
[OGL LOG] update_host_mtx : 2 ms
[OGL LOG] matrix is not yet sorted, sorting host matrix
[OGL LOG] sort_host_mtx_sparsity_pattern : 2 ms
[OGL LOG] sort_host_mtx : 1 ms
[OGL LOG] init_preconditioner : 0 ms
[OGL LOG] solve : 24 ms
noneompGKOBiCGStab:  Solving for Uz, Initial residual = 0.353269, Final residual = 7.5276e-07, No Iterations 41
[OGL LOG] init_preconditioner : 0 ms
[OGL LOG] solve : 98 ms
noneompGKOBiCGStab:  Solving for p, Initial residual = 0.763166, Final residual = 4.52169e-07, No Iterations 165
time step continuity errors : sum local = 2.67531e-06, global = -3.09749e-19, cumulative = 3.31468e-20
[OGL LOG] init_preconditioner : 0 ms
[OGL LOG] solve : 99 ms
noneompGKOBiCGStab:  Solving for p, Initial residual = 0.683088, Final residual = 7.18989e-07, No Iterations 167
time step continuity errors : sum local = 4.23376e-07, global = -5.04065e-19, cumulative = -4.70918e-19
ExecutionTime = 18.73 s  ClockTime = 1 s

Time = 0.048

Courant Number mean: 0.758098 max: 3.79785
[OGL LOG] init_host_sparsity_pattern : 4 ms
[OGL LOG] matrix not stored update host matrix
[OGL LOG] update_host_mtx : 1 ms
[OGL LOG] matrix is not yet sorted, sorting host matrix
[OGL LOG] sort_host_mtx_sparsity_pattern : 2 ms
[OGL LOG] sort_host_mtx : 1 ms
[OGL LOG] init_preconditioner : 0 ms
[OGL LOG] solve : 25 ms
noneompGKOBiCGStab:  Solving for Ux, Initial residual = 0.201757, Final residual = 9.9126e-07, No Iterations 41
[OGL LOG] init_host_sparsity_pattern : 4 ms
[OGL LOG] matrix not stored update host matrix
[OGL LOG] update_host_mtx : 2 ms
[OGL LOG] matrix is not yet sorted, sorting host matrix
[OGL LOG] sort_host_mtx_sparsity_pattern : 2 ms
[OGL LOG] sort_host_mtx : 1 ms
[OGL LOG] init_preconditioner : 0 ms
[OGL LOG] solve : 23 ms
noneompGKOBiCGStab:  Solving for Uy, Initial residual = 0.531098, Final residual = 9.23648e-07, No Iterations 40
[OGL LOG] init_host_sparsity_pattern : 4 ms
[OGL LOG] matrix not stored update host matrix
[OGL LOG] update_host_mtx : 2 ms
[OGL LOG] matrix is not yet sorted, sorting host matrix
[OGL LOG] sort_host_mtx_sparsity_pattern : 2 ms
[OGL LOG] sort_host_mtx : 1 ms
[OGL LOG] init_preconditioner : 0 ms
[OGL LOG] solve : 24 ms
noneompGKOBiCGStab:  Solving for Uz, Initial residual = 0.358802, Final residual = 8.64829e-07, No Iterations 40
[OGL LOG] init_preconditioner : 0 ms
[OGL LOG] solve : 101 ms
noneompGKOBiCGStab:  Solving for p, Initial residual = 0.777073, Final residual = 3.73421e-07, No Iterations 164
time step continuity errors : sum local = 1.35424e-06, global = 7.64679e-20, cumulative = -3.9445e-19
[OGL LOG] init_preconditioner : 0 ms
[OGL LOG] solve : 103 ms
noneompGKOBiCGStab:  Solving for p, Initial residual = 0.748137, Final residual = 2.18129e-07, No Iterations 167
time step continuity errors : sum local = 9.83486e-06, global = -4.65567e-19, cumulative = -8.60017e-19
ExecutionTime = 28.3 s  ClockTime = 1 s

Time = 0.064

Courant Number mean: 0.685363 max: 3.20055
[OGL LOG] init_host_sparsity_pattern : 4 ms
[OGL LOG] matrix not stored update host matrix
[OGL LOG] update_host_mtx : 1 ms
[OGL LOG] matrix is not yet sorted, sorting host matrix
[OGL LOG] sort_host_mtx_sparsity_pattern : 2 ms
[OGL LOG] sort_host_mtx : 1 ms
[OGL LOG] init_preconditioner : 0 ms
[OGL LOG] solve : 22 ms
noneompGKOBiCGStab:  Solving for Ux, Initial residual = 0.152732, Final residual = 7.20091e-07, No Iterations 37
[OGL LOG] init_host_sparsity_pattern : 4 ms
[OGL LOG] matrix not stored update host matrix
[OGL LOG] update_host_mtx : 2 ms
[OGL LOG] matrix is not yet sorted, sorting host matrix
[OGL LOG] sort_host_mtx_sparsity_pattern : 2 ms
[OGL LOG] sort_host_mtx : 1 ms
[OGL LOG] init_preconditioner : 0 ms
[OGL LOG] solve : 24 ms
noneompGKOBiCGStab:  Solving for Uy, Initial residual = 0.317473, Final residual = 8.08757e-07, No Iterations 40
[OGL LOG] init_host_sparsity_pattern : 4 ms
[OGL LOG] matrix not stored update host matrix
[OGL LOG] update_host_mtx : 2 ms
[OGL LOG] matrix is not yet sorted, sorting host matrix
[OGL LOG] sort_host_mtx_sparsity_pattern : 2 ms
[OGL LOG] sort_host_mtx : 1 ms
[OGL LOG] init_preconditioner : 0 ms
[OGL LOG] solve : 25 ms
noneompGKOBiCGStab:  Solving for Uz, Initial residual = 0.699071, Final residual = 9.84585e-07, No Iterations 41
[OGL LOG] init_preconditioner : 0 ms
[OGL LOG] solve : 112 ms
noneompGKOBiCGStab:  Solving for p, Initial residual = 0.704009, Final residual = 6.3935e-07, No Iterations 171
time step continuity errors : sum local = 1.21144e-06, global = 1.484e-19, cumulative = -7.11618e-19
[OGL LOG] init_preconditioner : 0 ms
[OGL LOG] solve : 103 ms
noneompGKOBiCGStab:  Solving for p, Initial residual = 0.618331, Final residual = 6.3935e-07, No Iterations 165
time step continuity errors : sum local = 2.14098e-06, global = -3.26078e-19, cumulative = -1.0377e-18
ExecutionTime = 38.27 s  ClockTime = 2 s

Time = 0.08

Courant Number mean: 0.783811 max: 3.73323
[OGL LOG] init_host_sparsity_pattern : 4 ms
[OGL LOG] matrix not stored update host matrix
[OGL LOG] update_host_mtx : 2 ms
[OGL LOG] matrix is not yet sorted, sorting host matrix
[OGL LOG] sort_host_mtx_sparsity_pattern : 3 ms
[OGL LOG] sort_host_mtx : 1 ms
[OGL LOG] init_preconditioner : 0 ms
[OGL LOG] solve : 25 ms
noneompGKOBiCGStab:  Solving for Ux, Initial residual = 0.12398, Final residual = 9.79099e-07, No Iterations 38
[OGL LOG] init_host_sparsity_pattern : 5 ms
[OGL LOG] matrix not stored update host matrix
[OGL LOG] update_host_mtx : 2 ms
[OGL LOG] matrix is not yet sorted, sorting host matrix
[OGL LOG] sort_host_mtx_sparsity_pattern : 2 ms
[OGL LOG] sort_host_mtx : 1 ms
[OGL LOG] init_preconditioner : 0 ms
[OGL LOG] solve : 25 ms
noneompGKOBiCGStab:  Solving for Uy, Initial residual = 0.296635, Final residual = 7.2634e-07, No Iterations 39
[OGL LOG] init_host_sparsity_pattern : 5 ms
[OGL LOG] matrix not stored update host matrix
[OGL LOG] update_host_mtx : 2 ms
[OGL LOG] matrix is not yet sorted, sorting host matrix
[OGL LOG] sort_host_mtx_sparsity_pattern : 2 ms
[OGL LOG] sort_host_mtx : 1 ms
[OGL LOG] init_preconditioner : 0 ms
[OGL LOG] solve : 25 ms
noneompGKOBiCGStab:  Solving for Uz, Initial residual = 0.452971, Final residual = 8.88363e-07, No Iterations 40
[OGL LOG] init_preconditioner : 0 ms
[OGL LOG] solve : 107 ms
noneompGKOBiCGStab:  Solving for p, Initial residual = 0.705407, Final residual = 7.66931e-07, No Iterations 166
time step continuity errors : sum local = 1.54771e-06, global = -1.32921e-19, cumulative = -1.17062e-18
[OGL LOG] init_preconditioner : 0 ms
[OGL LOG] solve : 105 ms
noneompGKOBiCGStab:  Solving for p, Initial residual = 0.668998, Final residual = 8.92525e-07, No Iterations 169
time step continuity errors : sum local = 1.04927e-06, global = -1.08941e-19, cumulative = -1.27956e-18
ExecutionTime = 48.21 s  ClockTime = 2 s

End

