/*---------------------------------------------------------------------------*\
  =========                 |
  \\      /  F ield         | OpenFOAM: The Open Source CFD Toolbox
   \\    /   O peration     | Website:  https://openfoam.org
    \\  /    A nd           | Version:  8
     \\/     M anipulation  |
\*---------------------------------------------------------------------------*/
Build  : 8-13d66902f78c
Exec   : icoFoam
Date   : Jul 04 2021
Time   : 09:05:13
Host   : "uc2n399.localdomain"
PID    : 2500478
I/O    : uncollated
Case   : /pfs/data5/home/kit/scc/nq7776/code/OGL_DATA/lidDrivenCavity3D/v0.1-136-g40fef35/f584ccac99/IntelXeonGold6230CPU@2.10GHz/Test_2021-07-04-08:36:30/75/p-U-CG-GKO-none-omp/lidDrivenCavity3D
nProcs : 1
sigFpe : Enabling floating point exception trapping (FOAM_SIGFPE).
fileModificationChecking : Monitoring run-time modified files using timeStampMaster (fileModificationSkew 10)
allowSystemOperations : Allowing user-supplied system call operations

// * * * * * * * * * * * * * * * * * * * * * * * * * * * * * * * * * * * * * //
Create time

Create mesh for time = 0

Reading transportProperties

Reading field p

Reading field U

Reading/calculating face flux field phi


Starting time loop

Time = 0.00133333

Courant Number mean: 0 max: 0
[OGL LOG] init_host_sparsity_pattern : 120 ms
[OGL LOG] matrix not stored update host matrix
[OGL LOG] update_host_mtx : 61 ms
[OGL LOG] matrix is not yet sorted, compute sorting idxs
[OGL LOG] compute_sort : 3626 ms
[OGL LOG] matrix is not yet sorted, sorting host matrix
[OGL LOG] sort_host_mtx_sparsity_pattern : 77 ms
[OGL LOG] sort_host_mtx : 52 ms
[OGL LOG] init_preconditioner : 0 ms
[OGL LOG] solve : 894 ms
noneompGKOBiCGStab:  Solving for Ux, Initial residual = 1, Final residual = 3.51283e-07, No Iterations 51
[OGL LOG] init_host_sparsity_pattern : 117 ms
[OGL LOG] matrix not stored update host matrix
[OGL LOG] update_host_mtx : 62 ms
[OGL LOG] matrix is not yet sorted, sorting host matrix
[OGL LOG] sort_host_mtx_sparsity_pattern : 82 ms
[OGL LOG] sort_host_mtx : 45 ms
[OGL LOG] init_preconditioner : 0 ms
[OGL LOG] solve : 23 ms
noneompGKOBiCGStab:  Solving for Uy, Initial residual = 0, Final residual = 0, No Iterations 0
[OGL LOG] init_host_sparsity_pattern : 112 ms
[OGL LOG] matrix not stored update host matrix
[OGL LOG] update_host_mtx : 53 ms
[OGL LOG] matrix is not yet sorted, sorting host matrix
[OGL LOG] sort_host_mtx_sparsity_pattern : 85 ms
[OGL LOG] sort_host_mtx : 47 ms
[OGL LOG] init_preconditioner : 0 ms
[OGL LOG] solve : 20 ms
noneompGKOBiCGStab:  Solving for Uz, Initial residual = 0, Final residual = 0, No Iterations 0
[OGL LOG] init_host_sparsity_pattern : 112 ms
[OGL LOG] matrix not stored update host matrix
[OGL LOG] update_host_mtx : 64 ms
[OGL LOG] matrix is not yet sorted, sorting host matrix
[OGL LOG] sort_host_mtx_sparsity_pattern : 81 ms
[OGL LOG] sort_host_mtx : 47 ms
[OGL LOG] init_preconditioner : 0 ms
[OGL LOG] solve : 5598 ms
noneompGKOCG:  Solving for p, Initial residual = 1, Final residual = 9.25016e-07, No Iterations 671
time step continuity errors : sum local = 8.44899e-10, global = -8.2491e-21, cumulative = -8.2491e-21
[OGL LOG] init_preconditioner : 0 ms
[OGL LOG] solve : 5409 ms
noneompGKOCG:  Solving for p, Initial residual = 0.759326, Final residual = 8.8602e-07, No Iterations 667
time step continuity errors : sum local = 1.036e-09, global = -7.29029e-21, cumulative = -1.55394e-20
ExecutionTime = 30.94 s  ClockTime = 19 s

Time = 0.00266667

Courant Number mean: 0.0631769 max: 0.775367
[OGL LOG] init_host_sparsity_pattern : 112 ms
[OGL LOG] matrix not stored update host matrix
[OGL LOG] update_host_mtx : 57 ms
[OGL LOG] matrix is not yet sorted, sorting host matrix
[OGL LOG] sort_host_mtx_sparsity_pattern : 86 ms
[OGL LOG] sort_host_mtx : 43 ms
[OGL LOG] init_preconditioner : 0 ms
[OGL LOG] solve : 698 ms
noneompGKOBiCGStab:  Solving for Ux, Initial residual = 0.183034, Final residual = 9.76925e-07, No Iterations 41
[OGL LOG] init_host_sparsity_pattern : 112 ms
[OGL LOG] matrix not stored update host matrix
[OGL LOG] update_host_mtx : 53 ms
[OGL LOG] matrix is not yet sorted, sorting host matrix
[OGL LOG] sort_host_mtx_sparsity_pattern : 72 ms
[OGL LOG] sort_host_mtx : 43 ms
[OGL LOG] init_preconditioner : 0 ms
[OGL LOG] solve : 783 ms
noneompGKOBiCGStab:  Solving for Uy, Initial residual = 0.619629, Final residual = 8.78563e-07, No Iterations 45
[OGL LOG] init_host_sparsity_pattern : 116 ms
[OGL LOG] matrix not stored update host matrix
[OGL LOG] update_host_mtx : 59 ms
[OGL LOG] matrix is not yet sorted, sorting host matrix
[OGL LOG] sort_host_mtx_sparsity_pattern : 77 ms
[OGL LOG] sort_host_mtx : 43 ms
[OGL LOG] init_preconditioner : 0 ms
[OGL LOG] solve : 798 ms
noneompGKOBiCGStab:  Solving for Uz, Initial residual = 0.60471, Final residual = 9.68544e-07, No Iterations 47
[OGL LOG] init_preconditioner : 0 ms
[OGL LOG] solve : 5195 ms
noneompGKOCG:  Solving for p, Initial residual = 0.749129, Final residual = 9.98159e-07, No Iterations 644
time step continuity errors : sum local = 1.42124e-09, global = -1.7828e-20, cumulative = -3.33674e-20
[OGL LOG] init_preconditioner : 0 ms
[OGL LOG] solve : 5321 ms
noneompGKOCG:  Solving for p, Initial residual = 0.683906, Final residual = 9.64371e-07, No Iterations 643
time step continuity errors : sum local = 1.40348e-09, global = 3.73041e-21, cumulative = -2.9637e-20
ExecutionTime = 57.85 s  ClockTime = 33 s

Time = 0.004

Courant Number mean: 0.0951461 max: 0.917097
[OGL LOG] init_host_sparsity_pattern : 112 ms
[OGL LOG] matrix not stored update host matrix
[OGL LOG] update_host_mtx : 56 ms
[OGL LOG] matrix is not yet sorted, sorting host matrix
[OGL LOG] sort_host_mtx_sparsity_pattern : 79 ms
[OGL LOG] sort_host_mtx : 43 ms
[OGL LOG] init_preconditioner : 0 ms
[OGL LOG] solve : 711 ms
noneompGKOBiCGStab:  Solving for Ux, Initial residual = 0.101944, Final residual = 9.33364e-07, No Iterations 42
[OGL LOG] init_host_sparsity_pattern : 112 ms
[OGL LOG] matrix not stored update host matrix
[OGL LOG] update_host_mtx : 53 ms
[OGL LOG] matrix is not yet sorted, sorting host matrix
[OGL LOG] sort_host_mtx_sparsity_pattern : 72 ms
[OGL LOG] sort_host_mtx : 43 ms
[OGL LOG] init_preconditioner : 0 ms
[OGL LOG] solve : 766 ms
noneompGKOBiCGStab:  Solving for Uy, Initial residual = 0.335433, Final residual = 8.57252e-07, No Iterations 45
[OGL LOG] init_host_sparsity_pattern : 112 ms
[OGL LOG] matrix not stored update host matrix
[OGL LOG] update_host_mtx : 53 ms
[OGL LOG] matrix is not yet sorted, sorting host matrix
[OGL LOG] sort_host_mtx_sparsity_pattern : 72 ms
[OGL LOG] sort_host_mtx : 43 ms
[OGL LOG] init_preconditioner : 0 ms
[OGL LOG] solve : 785 ms
noneompGKOBiCGStab:  Solving for Uz, Initial residual = 0.920733, Final residual = 7.64348e-07, No Iterations 46
[OGL LOG] init_preconditioner : 0 ms
[OGL LOG] solve : 5459 ms
noneompGKOCG:  Solving for p, Initial residual = 0.754753, Final residual = 9.73207e-07, No Iterations 663
time step continuity errors : sum local = 1.14399e-09, global = 1.14658e-20, cumulative = -1.81711e-20
[OGL LOG] init_preconditioner : 0 ms
[OGL LOG] solve : 5455 ms
noneompGKOCG:  Solving for p, Initial residual = 0.71702, Final residual = 9.88909e-07, No Iterations 661
time step continuity errors : sum local = 1.128e-09, global = 2.58735e-20, cumulative = 7.70235e-21
ExecutionTime = 85.41 s  ClockTime = 48 s

Time = 0.00533333

Courant Number mean: 0.109256 max: 0.913435
[OGL LOG] init_host_sparsity_pattern : 112 ms
[OGL LOG] matrix not stored update host matrix
[OGL LOG] update_host_mtx : 53 ms
[OGL LOG] matrix is not yet sorted, sorting host matrix
[OGL LOG] sort_host_mtx_sparsity_pattern : 73 ms
[OGL LOG] sort_host_mtx : 43 ms
[OGL LOG] init_preconditioner : 0 ms
[OGL LOG] solve : 676 ms
noneompGKOBiCGStab:  Solving for Ux, Initial residual = 0.0446965, Final residual = 5.36083e-07, No Iterations 40
[OGL LOG] init_host_sparsity_pattern : 112 ms
[OGL LOG] matrix not stored update host matrix
[OGL LOG] update_host_mtx : 53 ms
[OGL LOG] matrix is not yet sorted, sorting host matrix
[OGL LOG] sort_host_mtx_sparsity_pattern : 72 ms
[OGL LOG] sort_host_mtx : 43 ms
[OGL LOG] init_preconditioner : 0 ms
[OGL LOG] solve : 677 ms
noneompGKOBiCGStab:  Solving for Uy, Initial residual = 0.197564, Final residual = 8.09723e-07, No Iterations 40
[OGL LOG] init_host_sparsity_pattern : 112 ms
[OGL LOG] matrix not stored update host matrix
[OGL LOG] update_host_mtx : 53 ms
[OGL LOG] matrix is not yet sorted, sorting host matrix
[OGL LOG] sort_host_mtx_sparsity_pattern : 72 ms
[OGL LOG] sort_host_mtx : 43 ms
[OGL LOG] init_preconditioner : 0 ms
[OGL LOG] solve : 786 ms
noneompGKOBiCGStab:  Solving for Uz, Initial residual = 0.732472, Final residual = 5.61221e-07, No Iterations 46
[OGL LOG] init_preconditioner : 0 ms
[OGL LOG] solve : 5441 ms
noneompGKOCG:  Solving for p, Initial residual = 0.617353, Final residual = 9.82208e-07, No Iterations 661
time step continuity errors : sum local = 1.0234e-09, global = -2.07729e-20, cumulative = -1.30705e-20
[OGL LOG] init_preconditioner : 0 ms
[OGL LOG] solve : 5449 ms
noneompGKOCG:  Solving for p, Initial residual = 0.554747, Final residual = 9.80591e-07, No Iterations 659
time step continuity errors : sum local = 1.03635e-09, global = -9.06731e-21, cumulative = -2.21379e-20
ExecutionTime = 112.71 s  ClockTime = 62 s

Time = 0.00666667

Courant Number mean: 0.122085 max: 0.929082
[OGL LOG] init_host_sparsity_pattern : 112 ms
[OGL LOG] matrix not stored update host matrix
[OGL LOG] update_host_mtx : 56 ms
[OGL LOG] matrix is not yet sorted, sorting host matrix
[OGL LOG] sort_host_mtx_sparsity_pattern : 79 ms
[OGL LOG] sort_host_mtx : 43 ms
[OGL LOG] init_preconditioner : 0 ms
[OGL LOG] solve : 663 ms
noneompGKOBiCGStab:  Solving for Ux, Initial residual = 0.0319071, Final residual = 8.72938e-07, No Iterations 39
[OGL LOG] init_host_sparsity_pattern : 112 ms
[OGL LOG] matrix not stored update host matrix
[OGL LOG] update_host_mtx : 53 ms
[OGL LOG] matrix is not yet sorted, sorting host matrix
[OGL LOG] sort_host_mtx_sparsity_pattern : 72 ms
[OGL LOG] sort_host_mtx : 44 ms
[OGL LOG] init_preconditioner : 0 ms
[OGL LOG] solve : 687 ms
noneompGKOBiCGStab:  Solving for Uy, Initial residual = 0.0804624, Final residual = 8.85706e-07, No Iterations 40
[OGL LOG] init_host_sparsity_pattern : 112 ms
[OGL LOG] matrix not stored update host matrix
[OGL LOG] update_host_mtx : 53 ms
[OGL LOG] matrix is not yet sorted, sorting host matrix
[OGL LOG] sort_host_mtx_sparsity_pattern : 72 ms
[OGL LOG] sort_host_mtx : 43 ms
[OGL LOG] init_preconditioner : 0 ms
[OGL LOG] solve : 754 ms
noneompGKOBiCGStab:  Solving for Uz, Initial residual = 0.513457, Final residual = 9.72226e-07, No Iterations 44
[OGL LOG] init_preconditioner : 0 ms
[OGL LOG] solve : 5454 ms
noneompGKOCG:  Solving for p, Initial residual = 0.591988, Final residual = 9.70924e-07, No Iterations 666
time step continuity errors : sum local = 8.12641e-10, global = 8.20669e-21, cumulative = -1.39312e-20
[OGL LOG] init_preconditioner : 0 ms
[OGL LOG] solve : 5484 ms
noneompGKOCG:  Solving for p, Initial residual = 0.543114, Final residual = 8.99777e-07, No Iterations 666
time step continuity errors : sum local = 7.43768e-10, global = -1.93262e-20, cumulative = -3.32574e-20
ExecutionTime = 140.02 s  ClockTime = 76 s

End

