/*---------------------------------------------------------------------------*\
  =========                 |
  \\      /  F ield         | OpenFOAM: The Open Source CFD Toolbox
   \\    /   O peration     | Website:  https://openfoam.org
    \\  /    A nd           | Version:  8
     \\/     M anipulation  |
\*---------------------------------------------------------------------------*/
Build  : 8-13d66902f78c
Exec   : icoFoam
Date   : Jun 27 2021
Time   : 22:52:47
Host   : "uc2n528.localdomain"
PID    : 182840
I/O    : uncollated
Case   : /pfs/data5/home/kit/scc/nq7776/code/OGL_DATA/lidDrivenCavity3D/v0.1-118-gbd9d99d/f584ccac99/IntelXeonGold6230CPU@2.10GHz/Test_2021-06-27-22:26:13/50/p-BiCGStab-GKO-none-omp/lidDrivenCavity3D
nProcs : 1
sigFpe : Enabling floating point exception trapping (FOAM_SIGFPE).
fileModificationChecking : Monitoring run-time modified files using timeStampMaster (fileModificationSkew 10)
allowSystemOperations : Allowing user-supplied system call operations

// * * * * * * * * * * * * * * * * * * * * * * * * * * * * * * * * * * * * * //
Create time

Create mesh for time = 0

Reading transportProperties

Reading field p

Reading field U

Reading/calculating face flux field phi


Starting time loop

Time = 0.002

Courant Number mean: 0 max: 0
nonePBiCGStab:  Solving for Ux, Initial residual = 1, Final residual = 0.0592055, No Iterations 5
nonePBiCGStab:  Solving for Uy, Initial residual = 0, Final residual = 0, No Iterations 0
nonePBiCGStab:  Solving for Uz, Initial residual = 0, Final residual = 0, No Iterations 0
Gingko init_host_sparsity_pattern : 35 ms
 matrix not stored update host matrix 
Gingko update_host_mtx : 18 ms
matrix is not yet sorted, compute sorting idxs 
 compute sorting idxs 860000
Gingko compute_sort : 990 ms
matrix is not yet sorted,  sorting host matrix 
Gingko sort_host_mtx_sparsity_pattern : 23 ms
Gingko sort_host_mtx : 14 ms
Gingko init_preconditioner : 0 ms
 get_precond == NULL
Gingko solve : 1269 ms
 copy back
 get iters 
noneompGKOBiCGStab:  Solving for p, Initial residual = 0, Final residual = 5.67034e-07, No Iterations 354
time step continuity errors : sum local = 5.27309e-08, global = -1.86554e-20, cumulative = -1.86554e-20
Gingko init_preconditioner : 0 ms
 get_precond == NULL
Gingko solve : 1229 ms
 copy back
 get iters 
noneompGKOBiCGStab:  Solving for p, Initial residual = 1, Final residual = 9.05482e-07, No Iterations 335
time step continuity errors : sum local = 2.86073e-07, global = 2.59197e-21, cumulative = -1.60634e-20
ExecutionTime = 11.73 s  ClockTime = 4 s

Time = 0.004

Courant Number mean: 0.0636235 max: 0.723792
nonePBiCGStab:  Solving for Ux, Initial residual = 0.144135, Final residual = 0.0219213, No Iterations 5
nonePBiCGStab:  Solving for Uy, Initial residual = 0.36393, Final residual = 0.052339, No Iterations 5
nonePBiCGStab:  Solving for Uz, Initial residual = 0.972737, Final residual = 0.159342, No Iterations 5
Gingko init_preconditioner : 0 ms
 get_precond == NULL
Gingko solve : 1290 ms
 copy back
 get iters 
noneompGKOBiCGStab:  Solving for p, Initial residual = 0.676702, Final residual = 7.10835e-07, No Iterations 355
time step continuity errors : sum local = 7.58029e-08, global = -9.18682e-21, cumulative = -2.52503e-20
Gingko init_preconditioner : 0 ms
 get_precond == NULL
Gingko solve : 1260 ms
 copy back
 get iters 
noneompGKOBiCGStab:  Solving for p, Initial residual = 0.668502, Final residual = 9.66386e-07, No Iterations 350
time step continuity errors : sum local = 8.21013e-09, global = -6.32919e-21, cumulative = -3.15794e-20
ExecutionTime = 22.07 s  ClockTime = 7 s

Time = 0.006

Courant Number mean: 0.0972263 max: 0.862513
nonePBiCGStab:  Solving for Ux, Initial residual = 0.0524115, Final residual = 0.00685422, No Iterations 5
nonePBiCGStab:  Solving for Uy, Initial residual = 0.127079, Final residual = 0.0201401, No Iterations 5
nonePBiCGStab:  Solving for Uz, Initial residual = 0.366268, Final residual = 0.0531728, No Iterations 5
Gingko init_preconditioner : 0 ms
 get_precond == NULL
Gingko solve : 1256 ms
 copy back
 get iters 
noneompGKOBiCGStab:  Solving for p, Initial residual = 0.584642, Final residual = 9.95807e-07, No Iterations 348
time step continuity errors : sum local = 6.95259e-09, global = 4.08025e-20, cumulative = 9.2231e-21
Gingko init_preconditioner : 0 ms
 get_precond == NULL
Gingko solve : 1256 ms
 copy back
 get iters 
noneompGKOBiCGStab:  Solving for p, Initial residual = 0.594536, Final residual = 7.07091e-07, No Iterations 347
time step continuity errors : sum local = 1.83381e-08, global = 1.2652e-20, cumulative = 2.18751e-20
ExecutionTime = 32.26 s  ClockTime = 10 s

Time = 0.008

Courant Number mean: 0.113793 max: 0.882479
nonePBiCGStab:  Solving for Ux, Initial residual = 0.0289534, Final residual = 0.00344459, No Iterations 5
nonePBiCGStab:  Solving for Uy, Initial residual = 0.0844329, Final residual = 0.0109168, No Iterations 5
nonePBiCGStab:  Solving for Uz, Initial residual = 0.229381, Final residual = 0.0299692, No Iterations 5
Gingko init_preconditioner : 0 ms
 get_precond == NULL
Gingko solve : 1276 ms
 copy back
 get iters 
noneompGKOBiCGStab:  Solving for p, Initial residual = 0.528718, Final residual = 1.71467e-07, No Iterations 363
time step continuity errors : sum local = 1.2841e-07, global = 3.05135e-20, cumulative = 5.23886e-20
Gingko init_preconditioner : 0 ms
 get_precond == NULL
Gingko solve : 1185 ms
 copy back
 get iters 
noneompGKOBiCGStab:  Solving for p, Initial residual = 0.411403, Final residual = 9.99309e-07, No Iterations 337
time step continuity errors : sum local = 3.19354e-09, global = -1.56325e-20, cumulative = 3.67562e-20
ExecutionTime = 42.23 s  ClockTime = 12 s

Time = 0.01

Courant Number mean: 0.127339 max: 0.898876
nonePBiCGStab:  Solving for Ux, Initial residual = 0.0202736, Final residual = 0.00208552, No Iterations 5
nonePBiCGStab:  Solving for Uy, Initial residual = 0.0505681, Final residual = 0.00624837, No Iterations 5
nonePBiCGStab:  Solving for Uz, Initial residual = 0.113029, Final residual = 0.0183695, No Iterations 5
Gingko init_preconditioner : 0 ms
 get_precond == NULL
Gingko solve : 1178 ms
 copy back
 get iters 
noneompGKOBiCGStab:  Solving for p, Initial residual = 0.342653, Final residual = 7.4633e-07, No Iterations 334
time step continuity errors : sum local = 2.74448e-08, global = 4.85032e-20, cumulative = 8.52594e-20
Gingko init_preconditioner : 0 ms
 get_precond == NULL
Gingko solve : 1132 ms
 copy back
 get iters 
noneompGKOBiCGStab:  Solving for p, Initial residual = 0.354021, Final residual = 5.41103e-07, No Iterations 323
time step continuity errors : sum local = 1.73177e-08, global = 2.98326e-20, cumulative = 1.15092e-19
ExecutionTime = 51.61 s  ClockTime = 15 s

End

