/*---------------------------------------------------------------------------*\
  =========                 |
  \\      /  F ield         | OpenFOAM: The Open Source CFD Toolbox
   \\    /   O peration     | Website:  https://openfoam.org
    \\  /    A nd           | Version:  8
     \\/     M anipulation  |
\*---------------------------------------------------------------------------*/
Build  : 8-13d66902f78c
Exec   : icoFoam
Date   : Jul 04 2021
Time   : 09:06:42
Host   : "uc2n423.localdomain"
PID    : 2482092
I/O    : uncollated
Case   : /pfs/data5/home/kit/scc/nq7776/code/OGL_DATA/lidDrivenCavity3D/v0.1-136-g40fef35/f584ccac99/IntelXeonGold6230CPU@2.10GHz/Test_2021-07-04-08:58:23/50/p-U-BiCGStab-GKO-BJ-omp/lidDrivenCavity3D
nProcs : 1
sigFpe : Enabling floating point exception trapping (FOAM_SIGFPE).
fileModificationChecking : Monitoring run-time modified files using timeStampMaster (fileModificationSkew 10)
allowSystemOperations : Allowing user-supplied system call operations

// * * * * * * * * * * * * * * * * * * * * * * * * * * * * * * * * * * * * * //
Create time

Create mesh for time = 0

Reading transportProperties

Reading field p

Reading field U

Reading/calculating face flux field phi


Starting time loop

Time = 0.002

Courant Number mean: 0 max: 0
[OGL LOG] init_host_sparsity_pattern : 35 ms
[OGL LOG] matrix not stored update host matrix
[OGL LOG] update_host_mtx : 18 ms
[OGL LOG] matrix is not yet sorted, compute sorting idxs
[OGL LOG] compute_sort : 1026 ms
[OGL LOG] matrix is not yet sorted, sorting host matrix
[OGL LOG] sort_host_mtx_sparsity_pattern : 23 ms
[OGL LOG] sort_host_mtx : 15 ms
[OGL LOG] init_preconditioner : 33 ms
[OGL LOG] solve : 686 ms
BJompGKOBiCGStab:  Solving for Ux, Initial residual = 1, Final residual = 8.40984e-07, No Iterations 31
[OGL LOG] init_host_sparsity_pattern : 34 ms
[OGL LOG] matrix not stored update host matrix
[OGL LOG] update_host_mtx : 18 ms
[OGL LOG] matrix is not yet sorted, sorting host matrix
[OGL LOG] sort_host_mtx_sparsity_pattern : 23 ms
[OGL LOG] sort_host_mtx : 12 ms
[OGL LOG] init_preconditioner : 33 ms
[OGL LOG] solve : 16 ms
BJompGKOBiCGStab:  Solving for Uy, Initial residual = 0, Final residual = 0, No Iterations 0
[OGL LOG] init_host_sparsity_pattern : 33 ms
[OGL LOG] matrix not stored update host matrix
[OGL LOG] update_host_mtx : 15 ms
[OGL LOG] matrix is not yet sorted, sorting host matrix
[OGL LOG] sort_host_mtx_sparsity_pattern : 23 ms
[OGL LOG] sort_host_mtx : 12 ms
[OGL LOG] init_preconditioner : 33 ms
[OGL LOG] solve : 16 ms
BJompGKOBiCGStab:  Solving for Uz, Initial residual = 0, Final residual = 0, No Iterations 0
[OGL LOG] init_host_sparsity_pattern : 33 ms
[OGL LOG] matrix not stored update host matrix
[OGL LOG] update_host_mtx : 18 ms
[OGL LOG] matrix is not yet sorted, sorting host matrix
[OGL LOG] sort_host_mtx_sparsity_pattern : 22 ms
[OGL LOG] sort_host_mtx : 13 ms
[OGL LOG] init_preconditioner : 33 ms
[OGL LOG] solve : 6658 ms
BJompGKOBiCGStab:  Solving for p, Initial residual = 1, Final residual = 6.75597e-07, No Iterations 308
time step continuity errors : sum local = 8.1573e-09, global = 8.00845e-21, cumulative = 8.00845e-21
[OGL LOG] init_preconditioner : 0 ms
[OGL LOG] solve : 6055 ms
BJompGKOBiCGStab:  Solving for p, Initial residual = 0.72159, Final residual = 5.85107e-07, No Iterations 280
time step continuity errors : sum local = 3.5564e-08, global = -2.22879e-21, cumulative = 5.77967e-21
ExecutionTime = 15.54 s  ClockTime = 16 s

Time = 0.004

Courant Number mean: 0.0720723 max: 0.72664
[OGL LOG] init_host_sparsity_pattern : 33 ms
[OGL LOG] matrix not stored update host matrix
[OGL LOG] update_host_mtx : 15 ms
[OGL LOG] matrix is not yet sorted, sorting host matrix
[OGL LOG] sort_host_mtx_sparsity_pattern : 22 ms
[OGL LOG] sort_host_mtx : 12 ms
[OGL LOG] init_preconditioner : 0 ms
[OGL LOG] solve : 499 ms
BJompGKOBiCGStab:  Solving for Ux, Initial residual = 0.203458, Final residual = 5.55743e-07, No Iterations 23
[OGL LOG] init_host_sparsity_pattern : 33 ms
[OGL LOG] matrix not stored update host matrix
[OGL LOG] update_host_mtx : 16 ms
[OGL LOG] matrix is not yet sorted, sorting host matrix
[OGL LOG] sort_host_mtx_sparsity_pattern : 22 ms
[OGL LOG] sort_host_mtx : 12 ms
[OGL LOG] init_preconditioner : 0 ms
[OGL LOG] solve : 705 ms
BJompGKOBiCGStab:  Solving for Uy, Initial residual = 0.618436, Final residual = 9.30085e-07, No Iterations 32
[OGL LOG] init_host_sparsity_pattern : 33 ms
[OGL LOG] matrix not stored update host matrix
[OGL LOG] update_host_mtx : 15 ms
[OGL LOG] matrix is not yet sorted, sorting host matrix
[OGL LOG] sort_host_mtx_sparsity_pattern : 22 ms
[OGL LOG] sort_host_mtx : 12 ms
[OGL LOG] init_preconditioner : 0 ms
[OGL LOG] solve : 684 ms
BJompGKOBiCGStab:  Solving for Uz, Initial residual = 0.536134, Final residual = 9.85683e-07, No Iterations 31
[OGL LOG] init_preconditioner : 0 ms
[OGL LOG] solve : 5747 ms
BJompGKOBiCGStab:  Solving for p, Initial residual = 0.673339, Final residual = 8.95196e-07, No Iterations 266
time step continuity errors : sum local = 1.17136e-08, global = 5.03733e-20, cumulative = 5.6153e-20
[OGL LOG] init_preconditioner : 0 ms
[OGL LOG] solve : 5721 ms
BJompGKOBiCGStab:  Solving for p, Initial residual = 0.598902, Final residual = 5.09666e-07, No Iterations 265
time step continuity errors : sum local = 2.39641e-09, global = 3.88255e-21, cumulative = 6.00356e-20
ExecutionTime = 29.24 s  ClockTime = 29 s

Time = 0.006

Courant Number mean: 0.107408 max: 0.881754
[OGL LOG] init_host_sparsity_pattern : 33 ms
[OGL LOG] matrix not stored update host matrix
[OGL LOG] update_host_mtx : 15 ms
[OGL LOG] matrix is not yet sorted, sorting host matrix
[OGL LOG] sort_host_mtx_sparsity_pattern : 22 ms
[OGL LOG] sort_host_mtx : 12 ms
[OGL LOG] init_preconditioner : 0 ms
[OGL LOG] solve : 467 ms
BJompGKOBiCGStab:  Solving for Ux, Initial residual = 0.0995534, Final residual = 7.03193e-07, No Iterations 21
[OGL LOG] init_host_sparsity_pattern : 33 ms
[OGL LOG] matrix not stored update host matrix
[OGL LOG] update_host_mtx : 16 ms
[OGL LOG] matrix is not yet sorted, sorting host matrix
[OGL LOG] sort_host_mtx_sparsity_pattern : 22 ms
[OGL LOG] sort_host_mtx : 12 ms
[OGL LOG] init_preconditioner : 0 ms
[OGL LOG] solve : 642 ms
BJompGKOBiCGStab:  Solving for Uy, Initial residual = 0.250017, Final residual = 8.22152e-07, No Iterations 29
[OGL LOG] init_host_sparsity_pattern : 33 ms
[OGL LOG] matrix not stored update host matrix
[OGL LOG] update_host_mtx : 15 ms
[OGL LOG] matrix is not yet sorted, sorting host matrix
[OGL LOG] sort_host_mtx_sparsity_pattern : 22 ms
[OGL LOG] sort_host_mtx : 12 ms
[OGL LOG] init_preconditioner : 0 ms
[OGL LOG] solve : 706 ms
BJompGKOBiCGStab:  Solving for Uz, Initial residual = 0.541248, Final residual = 8.5484e-07, No Iterations 32
[OGL LOG] init_preconditioner : 0 ms
[OGL LOG] solve : 5447 ms
BJompGKOBiCGStab:  Solving for p, Initial residual = 0.606894, Final residual = 9.80287e-07, No Iterations 252
time step continuity errors : sum local = 7.57335e-09, global = -1.00193e-20, cumulative = 5.00162e-20
[OGL LOG] init_preconditioner : 0 ms
[OGL LOG] solve : 5716 ms
BJompGKOBiCGStab:  Solving for p, Initial residual = 0.560892, Final residual = 6.8075e-07, No Iterations 265
time step continuity errors : sum local = 1.19122e-09, global = -5.73813e-21, cumulative = 4.42781e-20
ExecutionTime = 42.55 s  ClockTime = 43 s

Time = 0.008

Courant Number mean: 0.123244 max: 0.890103
[OGL LOG] init_host_sparsity_pattern : 33 ms
[OGL LOG] matrix not stored update host matrix
[OGL LOG] update_host_mtx : 16 ms
[OGL LOG] matrix is not yet sorted, sorting host matrix
[OGL LOG] sort_host_mtx_sparsity_pattern : 22 ms
[OGL LOG] sort_host_mtx : 12 ms
[OGL LOG] init_preconditioner : 0 ms
[OGL LOG] solve : 552 ms
BJompGKOBiCGStab:  Solving for Ux, Initial residual = 0.0341395, Final residual = 7.88887e-07, No Iterations 25
[OGL LOG] init_host_sparsity_pattern : 33 ms
[OGL LOG] matrix not stored update host matrix
[OGL LOG] update_host_mtx : 15 ms
[OGL LOG] matrix is not yet sorted, sorting host matrix
[OGL LOG] sort_host_mtx_sparsity_pattern : 22 ms
[OGL LOG] sort_host_mtx : 12 ms
[OGL LOG] init_preconditioner : 0 ms
[OGL LOG] solve : 619 ms
BJompGKOBiCGStab:  Solving for Uy, Initial residual = 0.132381, Final residual = 8.14267e-07, No Iterations 28
[OGL LOG] init_host_sparsity_pattern : 33 ms
[OGL LOG] matrix not stored update host matrix
[OGL LOG] update_host_mtx : 15 ms
[OGL LOG] matrix is not yet sorted, sorting host matrix
[OGL LOG] sort_host_mtx_sparsity_pattern : 22 ms
[OGL LOG] sort_host_mtx : 12 ms
[OGL LOG] init_preconditioner : 0 ms
[OGL LOG] solve : 683 ms
BJompGKOBiCGStab:  Solving for Uz, Initial residual = 0.472006, Final residual = 9.56626e-07, No Iterations 31
[OGL LOG] init_preconditioner : 0 ms
[OGL LOG] solve : 5740 ms
BJompGKOBiCGStab:  Solving for p, Initial residual = 0.423041, Final residual = 9.989e-07, No Iterations 264
time step continuity errors : sum local = 1.68876e-09, global = -4.53867e-20, cumulative = -1.10864e-21
[OGL LOG] init_preconditioner : 0 ms
[OGL LOG] solve : 5792 ms
BJompGKOBiCGStab:  Solving for p, Initial residual = 0.368379, Final residual = 7.26716e-07, No Iterations 268
time step continuity errors : sum local = 4.9585e-09, global = -2.05029e-20, cumulative = -2.16115e-20
ExecutionTime = 56.25 s  ClockTime = 57 s

Time = 0.01

Courant Number mean: 0.136096 max: 0.906942
[OGL LOG] init_host_sparsity_pattern : 33 ms
[OGL LOG] matrix not stored update host matrix
[OGL LOG] update_host_mtx : 15 ms
[OGL LOG] matrix is not yet sorted, sorting host matrix
[OGL LOG] sort_host_mtx_sparsity_pattern : 22 ms
[OGL LOG] sort_host_mtx : 12 ms
[OGL LOG] init_preconditioner : 0 ms
[OGL LOG] solve : 531 ms
BJompGKOBiCGStab:  Solving for Ux, Initial residual = 0.0230735, Final residual = 7.32581e-07, No Iterations 24
[OGL LOG] init_host_sparsity_pattern : 33 ms
[OGL LOG] matrix not stored update host matrix
[OGL LOG] update_host_mtx : 17 ms
[OGL LOG] matrix is not yet sorted, sorting host matrix
[OGL LOG] sort_host_mtx_sparsity_pattern : 22 ms
[OGL LOG] sort_host_mtx : 12 ms
[OGL LOG] init_preconditioner : 0 ms
[OGL LOG] solve : 552 ms
BJompGKOBiCGStab:  Solving for Uy, Initial residual = 0.0484087, Final residual = 9.7638e-07, No Iterations 25
[OGL LOG] init_host_sparsity_pattern : 33 ms
[OGL LOG] matrix not stored update host matrix
[OGL LOG] update_host_mtx : 15 ms
[OGL LOG] matrix is not yet sorted, sorting host matrix
[OGL LOG] sort_host_mtx_sparsity_pattern : 22 ms
[OGL LOG] sort_host_mtx : 12 ms
[OGL LOG] init_preconditioner : 0 ms
[OGL LOG] solve : 622 ms
BJompGKOBiCGStab:  Solving for Uz, Initial residual = 0.159132, Final residual = 8.60435e-07, No Iterations 28
[OGL LOG] init_preconditioner : 0 ms
[OGL LOG] solve : 5680 ms
BJompGKOBiCGStab:  Solving for p, Initial residual = 0.361667, Final residual = 9.72474e-07, No Iterations 263
time step continuity errors : sum local = 1.45362e-09, global = -5.77979e-21, cumulative = -2.73913e-20
[OGL LOG] init_preconditioner : 0 ms
[OGL LOG] solve : 5145 ms
BJompGKOBiCGStab:  Solving for p, Initial residual = 0.333163, Final residual = 9.54844e-07, No Iterations 238
time step continuity errors : sum local = 1.68356e-09, global = -9.02841e-21, cumulative = -3.64198e-20
ExecutionTime = 69.13 s  ClockTime = 69 s

End

