/*---------------------------------------------------------------------------*\
  =========                 |
  \\      /  F ield         | OpenFOAM: The Open Source CFD Toolbox
   \\    /   O peration     | Website:  https://openfoam.org
    \\  /    A nd           | Version:  8
     \\/     M anipulation  |
\*---------------------------------------------------------------------------*/
Build  : 8-13d66902f78c
Exec   : icoFoam
Date   : Jul 04 2021
Time   : 10:15:37
Host   : "uc2n423.localdomain"
PID    : 2487200
I/O    : uncollated
Case   : /pfs/data5/home/kit/scc/nq7776/code/OGL_DATA/lidDrivenCavity3D/v0.1-136-g40fef35/f584ccac99/IntelXeonGold6230CPU@2.10GHz/Test_2021-07-04-08:58:23/75/p-U-BiCGStab-GKO-BJ-omp/lidDrivenCavity3D
nProcs : 1
sigFpe : Enabling floating point exception trapping (FOAM_SIGFPE).
fileModificationChecking : Monitoring run-time modified files using timeStampMaster (fileModificationSkew 10)
allowSystemOperations : Allowing user-supplied system call operations

// * * * * * * * * * * * * * * * * * * * * * * * * * * * * * * * * * * * * * //
Create time

Create mesh for time = 0

Reading transportProperties

Reading field p

Reading field U

Reading/calculating face flux field phi


Starting time loop

Time = 0.00133333

Courant Number mean: 0 max: 0
[OGL LOG] init_host_sparsity_pattern : 120 ms
[OGL LOG] matrix not stored update host matrix
[OGL LOG] update_host_mtx : 61 ms
[OGL LOG] matrix is not yet sorted, compute sorting idxs
[OGL LOG] compute_sort : 3637 ms
[OGL LOG] matrix is not yet sorted, sorting host matrix
[OGL LOG] sort_host_mtx_sparsity_pattern : 77 ms
[OGL LOG] sort_host_mtx : 51 ms
[OGL LOG] init_preconditioner : 33 ms
[OGL LOG] solve : 1060 ms
BJompGKOBiCGStab:  Solving for Ux, Initial residual = 1, Final residual = 8.57454e-07, No Iterations 40
[OGL LOG] init_host_sparsity_pattern : 129 ms
[OGL LOG] matrix not stored update host matrix
[OGL LOG] update_host_mtx : 78 ms
[OGL LOG] matrix is not yet sorted, sorting host matrix
[OGL LOG] sort_host_mtx_sparsity_pattern : 84 ms
[OGL LOG] sort_host_mtx : 43 ms
[OGL LOG] init_preconditioner : 35 ms
[OGL LOG] solve : 21 ms
BJompGKOBiCGStab:  Solving for Uy, Initial residual = 0, Final residual = 0, No Iterations 0
[OGL LOG] init_host_sparsity_pattern : 112 ms
[OGL LOG] matrix not stored update host matrix
[OGL LOG] update_host_mtx : 53 ms
[OGL LOG] matrix is not yet sorted, sorting host matrix
[OGL LOG] sort_host_mtx_sparsity_pattern : 76 ms
[OGL LOG] sort_host_mtx : 48 ms
[OGL LOG] init_preconditioner : 37 ms
[OGL LOG] solve : 21 ms
BJompGKOBiCGStab:  Solving for Uz, Initial residual = 0, Final residual = 0, No Iterations 0
[OGL LOG] init_host_sparsity_pattern : 113 ms
[OGL LOG] matrix not stored update host matrix
[OGL LOG] update_host_mtx : 63 ms
[OGL LOG] matrix is not yet sorted, sorting host matrix
[OGL LOG] sort_host_mtx_sparsity_pattern : 80 ms
[OGL LOG] sort_host_mtx : 43 ms
[OGL LOG] init_preconditioner : 35 ms
[OGL LOG] solve : 10510 ms
BJompGKOBiCGStab:  Solving for p, Initial residual = 1, Final residual = 8.79525e-07, No Iterations 436
time step continuity errors : sum local = 1.3376e-09, global = 1.43223e-21, cumulative = 1.43223e-21
[OGL LOG] init_preconditioner : 0 ms
[OGL LOG] solve : 10318 ms
BJompGKOBiCGStab:  Solving for p, Initial residual = 0.759327, Final residual = 9.31e-07, No Iterations 427
time step continuity errors : sum local = 3.11658e-07, global = 9.63994e-21, cumulative = 1.10722e-20
ExecutionTime = 95.29 s  ClockTime = 29 s

Time = 0.00266667

Courant Number mean: 0.0631769 max: 0.775367
[OGL LOG] init_host_sparsity_pattern : 112 ms
[OGL LOG] matrix not stored update host matrix
[OGL LOG] update_host_mtx : 56 ms
[OGL LOG] matrix is not yet sorted, sorting host matrix
[OGL LOG] sort_host_mtx_sparsity_pattern : 80 ms
[OGL LOG] sort_host_mtx : 43 ms
[OGL LOG] init_preconditioner : 0 ms
[OGL LOG] solve : 826 ms
BJompGKOBiCGStab:  Solving for Ux, Initial residual = 0.183057, Final residual = 9.38718e-07, No Iterations 31
[OGL LOG] init_host_sparsity_pattern : 117 ms
[OGL LOG] matrix not stored update host matrix
[OGL LOG] update_host_mtx : 66 ms
[OGL LOG] matrix is not yet sorted, sorting host matrix
[OGL LOG] sort_host_mtx_sparsity_pattern : 82 ms
[OGL LOG] sort_host_mtx : 43 ms
[OGL LOG] init_preconditioner : 0 ms
[OGL LOG] solve : 987 ms
BJompGKOBiCGStab:  Solving for Uy, Initial residual = 0.619604, Final residual = 9.46877e-07, No Iterations 39
[OGL LOG] init_host_sparsity_pattern : 112 ms
[OGL LOG] matrix not stored update host matrix
[OGL LOG] update_host_mtx : 53 ms
[OGL LOG] matrix is not yet sorted, sorting host matrix
[OGL LOG] sort_host_mtx_sparsity_pattern : 73 ms
[OGL LOG] sort_host_mtx : 43 ms
[OGL LOG] init_preconditioner : 0 ms
[OGL LOG] solve : 937 ms
BJompGKOBiCGStab:  Solving for Uz, Initial residual = 0.605476, Final residual = 5.68728e-07, No Iterations 38
[OGL LOG] init_preconditioner : 0 ms
[OGL LOG] solve : 9767 ms
BJompGKOBiCGStab:  Solving for p, Initial residual = 0.749136, Final residual = 9.0989e-07, No Iterations 400
time step continuity errors : sum local = 2.44422e-08, global = 1.45177e-20, cumulative = 2.55899e-20
[OGL LOG] init_preconditioner : 0 ms
[OGL LOG] solve : 10213 ms
BJompGKOBiCGStab:  Solving for p, Initial residual = 0.683866, Final residual = 2.80732e-07, No Iterations 420
time step continuity errors : sum local = 1.639e-08, global = -1.31538e-20, cumulative = 1.24361e-20
ExecutionTime = 187.36 s  ClockTime = 53 s

Time = 0.004

Courant Number mean: 0.0951472 max: 0.9171
[OGL LOG] init_host_sparsity_pattern : 112 ms
[OGL LOG] matrix not stored update host matrix
[OGL LOG] update_host_mtx : 56 ms
[OGL LOG] matrix is not yet sorted, sorting host matrix
[OGL LOG] sort_host_mtx_sparsity_pattern : 80 ms
[OGL LOG] sort_host_mtx : 44 ms
[OGL LOG] init_preconditioner : 0 ms
[OGL LOG] solve : 746 ms
BJompGKOBiCGStab:  Solving for Ux, Initial residual = 0.101971, Final residual = 7.52964e-07, No Iterations 28
[OGL LOG] init_host_sparsity_pattern : 112 ms
[OGL LOG] matrix not stored update host matrix
[OGL LOG] update_host_mtx : 54 ms
[OGL LOG] matrix is not yet sorted, sorting host matrix
[OGL LOG] sort_host_mtx_sparsity_pattern : 76 ms
[OGL LOG] sort_host_mtx : 44 ms
[OGL LOG] init_preconditioner : 0 ms
[OGL LOG] solve : 903 ms
BJompGKOBiCGStab:  Solving for Uy, Initial residual = 0.335385, Final residual = 8.80304e-07, No Iterations 36
[OGL LOG] init_host_sparsity_pattern : 112 ms
[OGL LOG] matrix not stored update host matrix
[OGL LOG] update_host_mtx : 54 ms
[OGL LOG] matrix is not yet sorted, sorting host matrix
[OGL LOG] sort_host_mtx_sparsity_pattern : 72 ms
[OGL LOG] sort_host_mtx : 43 ms
[OGL LOG] init_preconditioner : 0 ms
[OGL LOG] solve : 996 ms
BJompGKOBiCGStab:  Solving for Uz, Initial residual = 0.922276, Final residual = 9.16226e-07, No Iterations 40
[OGL LOG] init_preconditioner : 0 ms
[OGL LOG] solve : 10342 ms
BJompGKOBiCGStab:  Solving for p, Initial residual = 0.754771, Final residual = 5.95464e-07, No Iterations 414
time step continuity errors : sum local = 9.17746e-10, global = 8.35852e-21, cumulative = 2.07946e-20
[OGL LOG] init_preconditioner : 0 ms
[OGL LOG] solve : 9795 ms
BJompGKOBiCGStab:  Solving for p, Initial residual = 0.717004, Final residual = 8.96279e-07, No Iterations 394
time step continuity errors : sum local = 3.64426e-09, global = -1.13305e-20, cumulative = 9.46409e-21
ExecutionTime = 279.69 s  ClockTime = 77 s

Time = 0.00533333

Courant Number mean: 0.109256 max: 0.913437
[OGL LOG] init_host_sparsity_pattern : 112 ms
[OGL LOG] matrix not stored update host matrix
[OGL LOG] update_host_mtx : 55 ms
[OGL LOG] matrix is not yet sorted, sorting host matrix
[OGL LOG] sort_host_mtx_sparsity_pattern : 81 ms
[OGL LOG] sort_host_mtx : 43 ms
[OGL LOG] init_preconditioner : 0 ms
[OGL LOG] solve : 647 ms
BJompGKOBiCGStab:  Solving for Ux, Initial residual = 0.0446967, Final residual = 7.6864e-07, No Iterations 26
[OGL LOG] init_host_sparsity_pattern : 112 ms
[OGL LOG] matrix not stored update host matrix
[OGL LOG] update_host_mtx : 54 ms
[OGL LOG] matrix is not yet sorted, sorting host matrix
[OGL LOG] sort_host_mtx_sparsity_pattern : 72 ms
[OGL LOG] sort_host_mtx : 43 ms
[OGL LOG] init_preconditioner : 0 ms
[OGL LOG] solve : 987 ms
BJompGKOBiCGStab:  Solving for Uy, Initial residual = 0.197574, Final residual = 6.99943e-07, No Iterations 40
[OGL LOG] init_host_sparsity_pattern : 112 ms
[OGL LOG] matrix not stored update host matrix
[OGL LOG] update_host_mtx : 54 ms
[OGL LOG] matrix is not yet sorted, sorting host matrix
[OGL LOG] sort_host_mtx_sparsity_pattern : 72 ms
[OGL LOG] sort_host_mtx : 43 ms
[OGL LOG] init_preconditioner : 0 ms
[OGL LOG] solve : 826 ms
BJompGKOBiCGStab:  Solving for Uz, Initial residual = 0.732916, Final residual = 8.1351e-07, No Iterations 33
[OGL LOG] init_preconditioner : 0 ms
[OGL LOG] solve : 10098 ms
BJompGKOBiCGStab:  Solving for p, Initial residual = 0.617364, Final residual = 9.75032e-07, No Iterations 413
time step continuity errors : sum local = 3.07704e-09, global = 1.11173e-21, cumulative = 1.05758e-20
[OGL LOG] init_preconditioner : 0 ms
[OGL LOG] solve : 9814 ms
BJompGKOBiCGStab:  Solving for p, Initial residual = 0.554742, Final residual = 7.51672e-07, No Iterations 409
time step continuity errors : sum local = 1.59088e-09, global = -4.98699e-22, cumulative = 1.00771e-20
ExecutionTime = 370.26 s  ClockTime = 101 s

Time = 0.00666667

Courant Number mean: 0.122085 max: 0.929083
[OGL LOG] init_host_sparsity_pattern : 112 ms
[OGL LOG] matrix not stored update host matrix
[OGL LOG] update_host_mtx : 53 ms
[OGL LOG] matrix is not yet sorted, sorting host matrix
[OGL LOG] sort_host_mtx_sparsity_pattern : 78 ms
[OGL LOG] sort_host_mtx : 43 ms
[OGL LOG] init_preconditioner : 0 ms
[OGL LOG] solve : 623 ms
BJompGKOBiCGStab:  Solving for Ux, Initial residual = 0.0319033, Final residual = 8.59854e-07, No Iterations 25
[OGL LOG] init_host_sparsity_pattern : 112 ms
[OGL LOG] matrix not stored update host matrix
[OGL LOG] update_host_mtx : 53 ms
[OGL LOG] matrix is not yet sorted, sorting host matrix
[OGL LOG] sort_host_mtx_sparsity_pattern : 72 ms
[OGL LOG] sort_host_mtx : 44 ms
[OGL LOG] init_preconditioner : 0 ms
[OGL LOG] solve : 880 ms
BJompGKOBiCGStab:  Solving for Uy, Initial residual = 0.0804882, Final residual = 9.01242e-07, No Iterations 35
[OGL LOG] init_host_sparsity_pattern : 112 ms
[OGL LOG] matrix not stored update host matrix
[OGL LOG] update_host_mtx : 53 ms
[OGL LOG] matrix is not yet sorted, sorting host matrix
[OGL LOG] sort_host_mtx_sparsity_pattern : 72 ms
[OGL LOG] sort_host_mtx : 43 ms
[OGL LOG] init_preconditioner : 0 ms
[OGL LOG] solve : 951 ms
BJompGKOBiCGStab:  Solving for Uz, Initial residual = 0.513364, Final residual = 9.3073e-07, No Iterations 38
[OGL LOG] init_preconditioner : 0 ms
[OGL LOG] solve : 9333 ms
BJompGKOBiCGStab:  Solving for p, Initial residual = 0.592006, Final residual = 5.98256e-07, No Iterations 392
time step continuity errors : sum local = 2.34625e-07, global = -2.19095e-20, cumulative = -1.18324e-20
[OGL LOG] init_preconditioner : 0 ms
[OGL LOG] solve : 11510 ms
BJompGKOBiCGStab:  Solving for p, Initial residual = 0.543231, Final residual = 8.10177e-07, No Iterations 482
time step continuity errors : sum local = 1.17843e-09, global = -2.5829e-20, cumulative = -3.76614e-20
ExecutionTime = 464.6 s  ClockTime = 126 s

End

