/*---------------------------------------------------------------------------*\
  =========                 |
  \\      /  F ield         | OpenFOAM: The Open Source CFD Toolbox
   \\    /   O peration     | Website:  https://openfoam.org
    \\  /    A nd           | Version:  8
     \\/     M anipulation  |
\*---------------------------------------------------------------------------*/
Build  : 8-13d66902f78c
Exec   : icoFoam
Date   : Jul 04 2021
Time   : 08:36:47
Host   : "uc2n415.localdomain"
PID    : 2601992
I/O    : uncollated
Case   : /pfs/data5/home/kit/scc/nq7776/code/OGL_DATA/lidDrivenCavity3D/v0.1-136-g40fef35/f584ccac99/IntelXeonGold6230CPU@2.10GHz/Test_2021-07-04-08:36:30/25/p-U-BiCGStab-GKO-none-omp/lidDrivenCavity3D
nProcs : 1
sigFpe : Enabling floating point exception trapping (FOAM_SIGFPE).
fileModificationChecking : Monitoring run-time modified files using timeStampMaster (fileModificationSkew 10)
allowSystemOperations : Allowing user-supplied system call operations

// * * * * * * * * * * * * * * * * * * * * * * * * * * * * * * * * * * * * * //
Create time

Create mesh for time = 0

Reading transportProperties

Reading field p

Reading field U

Reading/calculating face flux field phi


Starting time loop

Time = 0.016

Courant Number mean: 0 max: 0
[OGL LOG] init_host_sparsity_pattern : 4 ms
[OGL LOG] matrix not stored update host matrix
[OGL LOG] update_host_mtx : 2 ms
[OGL LOG] matrix is not yet sorted, compute sorting idxs
[OGL LOG] compute_sort : 106 ms
[OGL LOG] matrix is not yet sorted, sorting host matrix
[OGL LOG] sort_host_mtx_sparsity_pattern : 2 ms
[OGL LOG] sort_host_mtx : 1 ms
[OGL LOG] init_preconditioner : 0 ms
[OGL LOG] solve : 43 ms
noneompGKOBiCGStab:  Solving for Ux, Initial residual = 1, Final residual = 9.17551e-07, No Iterations 42
[OGL LOG] init_host_sparsity_pattern : 4 ms
[OGL LOG] matrix not stored update host matrix
[OGL LOG] update_host_mtx : 2 ms
[OGL LOG] matrix is not yet sorted, sorting host matrix
[OGL LOG] sort_host_mtx_sparsity_pattern : 2 ms
[OGL LOG] sort_host_mtx : 1 ms
[OGL LOG] init_preconditioner : 0 ms
[OGL LOG] solve : 1 ms
noneompGKOBiCGStab:  Solving for Uy, Initial residual = 0, Final residual = 0, No Iterations 0
[OGL LOG] init_host_sparsity_pattern : 4 ms
[OGL LOG] matrix not stored update host matrix
[OGL LOG] update_host_mtx : 1 ms
[OGL LOG] matrix is not yet sorted, sorting host matrix
[OGL LOG] sort_host_mtx_sparsity_pattern : 2 ms
[OGL LOG] sort_host_mtx : 1 ms
[OGL LOG] init_preconditioner : 0 ms
[OGL LOG] solve : 1 ms
noneompGKOBiCGStab:  Solving for Uz, Initial residual = 0, Final residual = 0, No Iterations 0
[OGL LOG] init_host_sparsity_pattern : 4 ms
[OGL LOG] matrix not stored update host matrix
[OGL LOG] update_host_mtx : 1 ms
[OGL LOG] matrix is not yet sorted, sorting host matrix
[OGL LOG] sort_host_mtx_sparsity_pattern : 2 ms
[OGL LOG] sort_host_mtx : 1 ms
[OGL LOG] init_preconditioner : 0 ms
[OGL LOG] solve : 172 ms
noneompGKOBiCGStab:  Solving for p, Initial residual = 1, Final residual = 7.75853e-07, No Iterations 172
time step continuity errors : sum local = 8.42727e-08, global = -9.61382e-20, cumulative = -9.61382e-20
[OGL LOG] init_preconditioner : 0 ms
[OGL LOG] solve : 165 ms
noneompGKOBiCGStab:  Solving for p, Initial residual = 0.752921, Final residual = 6.5431e-07, No Iterations 169
time step continuity errors : sum local = 5.37443e-07, global = 1.91766e-19, cumulative = 9.56275e-20
ExecutionTime = 0.65 s  ClockTime = 1 s

Time = 0.032

Courant Number mean: 0.514721 max: 2.81436
[OGL LOG] init_host_sparsity_pattern : 4 ms
[OGL LOG] matrix not stored update host matrix
[OGL LOG] update_host_mtx : 1 ms
[OGL LOG] matrix is not yet sorted, sorting host matrix
[OGL LOG] sort_host_mtx_sparsity_pattern : 2 ms
[OGL LOG] sort_host_mtx : 1 ms
[OGL LOG] init_preconditioner : 0 ms
[OGL LOG] solve : 41 ms
noneompGKOBiCGStab:  Solving for Ux, Initial residual = 0.237234, Final residual = 8.53972e-07, No Iterations 41
[OGL LOG] init_host_sparsity_pattern : 4 ms
[OGL LOG] matrix not stored update host matrix
[OGL LOG] update_host_mtx : 1 ms
[OGL LOG] matrix is not yet sorted, sorting host matrix
[OGL LOG] sort_host_mtx_sparsity_pattern : 2 ms
[OGL LOG] sort_host_mtx : 1 ms
[OGL LOG] init_preconditioner : 0 ms
[OGL LOG] solve : 42 ms
noneompGKOBiCGStab:  Solving for Uy, Initial residual = 0.587628, Final residual = 9.1989e-07, No Iterations 43
[OGL LOG] init_host_sparsity_pattern : 4 ms
[OGL LOG] matrix not stored update host matrix
[OGL LOG] update_host_mtx : 1 ms
[OGL LOG] matrix is not yet sorted, sorting host matrix
[OGL LOG] sort_host_mtx_sparsity_pattern : 2 ms
[OGL LOG] sort_host_mtx : 1 ms
[OGL LOG] init_preconditioner : 0 ms
[OGL LOG] solve : 40 ms
noneompGKOBiCGStab:  Solving for Uz, Initial residual = 0.353104, Final residual = 9.7204e-07, No Iterations 40
[OGL LOG] init_preconditioner : 0 ms
[OGL LOG] solve : 167 ms
noneompGKOBiCGStab:  Solving for p, Initial residual = 0.763192, Final residual = 7.87038e-07, No Iterations 167
time step continuity errors : sum local = 2.10733e-07, global = -3.51494e-19, cumulative = -2.55866e-19
[OGL LOG] init_preconditioner : 0 ms
[OGL LOG] solve : 166 ms
noneompGKOBiCGStab:  Solving for p, Initial residual = 0.683106, Final residual = 8.55742e-08, No Iterations 165
time step continuity errors : sum local = 2.43031e-07, global = 1.83017e-19, cumulative = -7.28494e-20
ExecutionTime = 1.15 s  ClockTime = 1 s

Time = 0.048

Courant Number mean: 0.758087 max: 3.79784
[OGL LOG] init_host_sparsity_pattern : 4 ms
[OGL LOG] matrix not stored update host matrix
[OGL LOG] update_host_mtx : 1 ms
[OGL LOG] matrix is not yet sorted, sorting host matrix
[OGL LOG] sort_host_mtx_sparsity_pattern : 2 ms
[OGL LOG] sort_host_mtx : 1 ms
[OGL LOG] init_preconditioner : 0 ms
[OGL LOG] solve : 38 ms
noneompGKOBiCGStab:  Solving for Ux, Initial residual = 0.201737, Final residual = 7.08571e-07, No Iterations 39
[OGL LOG] init_host_sparsity_pattern : 4 ms
[OGL LOG] matrix not stored update host matrix
[OGL LOG] update_host_mtx : 1 ms
[OGL LOG] matrix is not yet sorted, sorting host matrix
[OGL LOG] sort_host_mtx_sparsity_pattern : 2 ms
[OGL LOG] sort_host_mtx : 1 ms
[OGL LOG] init_preconditioner : 0 ms
[OGL LOG] solve : 40 ms
noneompGKOBiCGStab:  Solving for Uy, Initial residual = 0.531128, Final residual = 8.54931e-07, No Iterations 40
[OGL LOG] init_host_sparsity_pattern : 4 ms
[OGL LOG] matrix not stored update host matrix
[OGL LOG] update_host_mtx : 1 ms
[OGL LOG] matrix is not yet sorted, sorting host matrix
[OGL LOG] sort_host_mtx_sparsity_pattern : 2 ms
[OGL LOG] sort_host_mtx : 1 ms
[OGL LOG] init_preconditioner : 0 ms
[OGL LOG] solve : 39 ms
noneompGKOBiCGStab:  Solving for Uz, Initial residual = 0.358647, Final residual = 4.45512e-07, No Iterations 39
[OGL LOG] init_preconditioner : 0 ms
[OGL LOG] solve : 158 ms
noneompGKOBiCGStab:  Solving for p, Initial residual = 0.777058, Final residual = 7.57126e-07, No Iterations 164
time step continuity errors : sum local = 1.2348e-07, global = 2.75567e-20, cumulative = -4.52927e-20
[OGL LOG] init_preconditioner : 0 ms
[OGL LOG] solve : 165 ms
noneompGKOBiCGStab:  Solving for p, Initial residual = 0.748136, Final residual = 7.97464e-07, No Iterations 165
time step continuity errors : sum local = 1.40316e-07, global = -5.1564e-20, cumulative = -9.68566e-20
ExecutionTime = 1.63 s  ClockTime = 2 s

Time = 0.064

Courant Number mean: 0.685362 max: 3.20055
[OGL LOG] init_host_sparsity_pattern : 4 ms
[OGL LOG] matrix not stored update host matrix
[OGL LOG] update_host_mtx : 1 ms
[OGL LOG] matrix is not yet sorted, sorting host matrix
[OGL LOG] sort_host_mtx_sparsity_pattern : 2 ms
[OGL LOG] sort_host_mtx : 1 ms
[OGL LOG] init_preconditioner : 0 ms
[OGL LOG] solve : 37 ms
noneompGKOBiCGStab:  Solving for Ux, Initial residual = 0.152709, Final residual = 9.79669e-07, No Iterations 36
[OGL LOG] init_host_sparsity_pattern : 4 ms
[OGL LOG] matrix not stored update host matrix
[OGL LOG] update_host_mtx : 1 ms
[OGL LOG] matrix is not yet sorted, sorting host matrix
[OGL LOG] sort_host_mtx_sparsity_pattern : 2 ms
[OGL LOG] sort_host_mtx : 1 ms
[OGL LOG] init_preconditioner : 0 ms
[OGL LOG] solve : 39 ms
noneompGKOBiCGStab:  Solving for Uy, Initial residual = 0.317492, Final residual = 7.8789e-07, No Iterations 39
[OGL LOG] init_host_sparsity_pattern : 4 ms
[OGL LOG] matrix not stored update host matrix
[OGL LOG] update_host_mtx : 1 ms
[OGL LOG] matrix is not yet sorted, sorting host matrix
[OGL LOG] sort_host_mtx_sparsity_pattern : 2 ms
[OGL LOG] sort_host_mtx : 1 ms
[OGL LOG] init_preconditioner : 0 ms
[OGL LOG] solve : 38 ms
noneompGKOBiCGStab:  Solving for Uz, Initial residual = 0.699129, Final residual = 7.47908e-07, No Iterations 38
[OGL LOG] init_preconditioner : 0 ms
[OGL LOG] solve : 163 ms
noneompGKOBiCGStab:  Solving for p, Initial residual = 0.704087, Final residual = 6.1289e-07, No Iterations 163
time step continuity errors : sum local = 8.37214e-07, global = 2.1155e-19, cumulative = 1.14693e-19
[OGL LOG] init_preconditioner : 0 ms
[OGL LOG] solve : 163 ms
noneompGKOBiCGStab:  Solving for p, Initial residual = 0.618341, Final residual = 6.24918e-07, No Iterations 163
time step continuity errors : sum local = 1.88267e-07, global = -3.05482e-20, cumulative = 8.41449e-20
ExecutionTime = 2.11 s  ClockTime = 2 s

Time = 0.08

Courant Number mean: 0.783798 max: 3.7332
[OGL LOG] init_host_sparsity_pattern : 4 ms
[OGL LOG] matrix not stored update host matrix
[OGL LOG] update_host_mtx : 1 ms
[OGL LOG] matrix is not yet sorted, sorting host matrix
[OGL LOG] sort_host_mtx_sparsity_pattern : 2 ms
[OGL LOG] sort_host_mtx : 1 ms
[OGL LOG] init_preconditioner : 0 ms
[OGL LOG] solve : 40 ms
noneompGKOBiCGStab:  Solving for Ux, Initial residual = 0.123964, Final residual = 8.59813e-07, No Iterations 40
[OGL LOG] init_host_sparsity_pattern : 4 ms
[OGL LOG] matrix not stored update host matrix
[OGL LOG] update_host_mtx : 1 ms
[OGL LOG] matrix is not yet sorted, sorting host matrix
[OGL LOG] sort_host_mtx_sparsity_pattern : 2 ms
[OGL LOG] sort_host_mtx : 1 ms
[OGL LOG] init_preconditioner : 0 ms
[OGL LOG] solve : 38 ms
noneompGKOBiCGStab:  Solving for Uy, Initial residual = 0.296645, Final residual = 8.06881e-07, No Iterations 37
[OGL LOG] init_host_sparsity_pattern : 4 ms
[OGL LOG] matrix not stored update host matrix
[OGL LOG] update_host_mtx : 1 ms
[OGL LOG] matrix is not yet sorted, sorting host matrix
[OGL LOG] sort_host_mtx_sparsity_pattern : 2 ms
[OGL LOG] sort_host_mtx : 1 ms
[OGL LOG] init_preconditioner : 0 ms
[OGL LOG] solve : 41 ms
noneompGKOBiCGStab:  Solving for Uz, Initial residual = 0.45266, Final residual = 9.60867e-07, No Iterations 41
[OGL LOG] init_preconditioner : 0 ms
[OGL LOG] solve : 162 ms
noneompGKOBiCGStab:  Solving for p, Initial residual = 0.705436, Final residual = 7.29873e-07, No Iterations 162
time step continuity errors : sum local = 1.26959e-07, global = -5.79466e-19, cumulative = -4.95322e-19
[OGL LOG] init_preconditioner : 0 ms
[OGL LOG] solve : 164 ms
noneompGKOBiCGStab:  Solving for p, Initial residual = 0.669, Final residual = 4.12378e-07, No Iterations 164
time step continuity errors : sum local = 1.19707e-07, global = 2.37316e-19, cumulative = -2.58006e-19
ExecutionTime = 2.6 s  ClockTime = 3 s

End

