/*---------------------------------------------------------------------------*\
  =========                 |
  \\      /  F ield         | OpenFOAM: The Open Source CFD Toolbox
   \\    /   O peration     | Website:  https://openfoam.org
    \\  /    A nd           | Version:  8
     \\/     M anipulation  |
\*---------------------------------------------------------------------------*/
Build  : 8-13d66902f78c
Exec   : icoFoam
Date   : Jul 04 2021
Time   : 08:12:08
Host   : "uc2n420.localdomain"
PID    : 1123079
I/O    : uncollated
Case   : /pfs/data5/home/kit/scc/nq7776/code/OGL_DATA/lidDrivenCavity3D/v0.1-136-g40fef35/f584ccac99/IntelXeonGold6230CPU@2.10GHz/Test_2021-07-04-07:18:41/75/p-BiCGStab-GKO-none-omp/lidDrivenCavity3D
nProcs : 1
sigFpe : Enabling floating point exception trapping (FOAM_SIGFPE).
fileModificationChecking : Monitoring run-time modified files using timeStampMaster (fileModificationSkew 10)
allowSystemOperations : Allowing user-supplied system call operations

// * * * * * * * * * * * * * * * * * * * * * * * * * * * * * * * * * * * * * //
Create time

Create mesh for time = 0

Reading transportProperties

Reading field p

Reading field U

Reading/calculating face flux field phi


Starting time loop

Time = 0.00133333

Courant Number mean: 0 max: 0
nonePBiCGStab:  Solving for Ux, Initial residual = 1, Final residual = 0.0730231, No Iterations 5
nonePBiCGStab:  Solving for Uy, Initial residual = 0, Final residual = 0, No Iterations 0
nonePBiCGStab:  Solving for Uz, Initial residual = 0, Final residual = 0, No Iterations 0
[OGL LOG] init_host_sparsity_pattern : 124 ms
[OGL LOG] matrix not stored update host matrix
[OGL LOG] update_host_mtx : 62 ms
[OGL LOG] matrix is not yet sorted, compute sorting idxs
[OGL LOG] compute_sort : 3641 ms
[OGL LOG] matrix is not yet sorted, sorting host matrix
[OGL LOG] sort_host_mtx_sparsity_pattern : 81 ms
[OGL LOG] sort_host_mtx : 53 ms
[OGL LOG] init_preconditioner : 0 ms
[OGL LOG] solve : 5190 ms
noneompGKOBiCGStab:  Solving for p, Initial residual = 1, Final residual = 9.08386e-07, No Iterations 522
time step continuity errors : sum local = 1.11903e-09, global = -2.02615e-21, cumulative = -2.02615e-21
[OGL LOG] init_preconditioner : 0 ms
[OGL LOG] solve : 5048 ms
noneompGKOBiCGStab:  Solving for p, Initial residual = 0.697109, Final residual = 9.05543e-07, No Iterations 527
time step continuity errors : sum local = 9.059e-09, global = -7.06877e-21, cumulative = -9.09492e-21
ExecutionTime = 169.5 s  ClockTime = 17 s

Time = 0.00266667

Courant Number mean: 0.0508075 max: 0.767232
nonePBiCGStab:  Solving for Ux, Initial residual = 0.140594, Final residual = 0.0324538, No Iterations 5
nonePBiCGStab:  Solving for Uy, Initial residual = 0.413642, Final residual = 0.0923281, No Iterations 5
nonePBiCGStab:  Solving for Uz, Initial residual = 0.983159, Final residual = 0.24989, No Iterations 5
[OGL LOG] init_preconditioner : 0 ms
[OGL LOG] solve : 5085 ms
noneompGKOBiCGStab:  Solving for p, Initial residual = 0.746892, Final residual = 6.81444e-07, No Iterations 546
time step continuity errors : sum local = 1.07672e-07, global = 1.05593e-20, cumulative = 1.4644e-21
[OGL LOG] init_preconditioner : 0 ms
[OGL LOG] solve : 4737 ms
noneompGKOBiCGStab:  Solving for p, Initial residual = 0.668153, Final residual = 7.20406e-07, No Iterations 529
time step continuity errors : sum local = 6.66366e-08, global = 9.34927e-22, cumulative = 2.39932e-21
ExecutionTime = 326.9 s  ClockTime = 27 s

Time = 0.004

Courant Number mean: 0.0796134 max: 0.886021
nonePBiCGStab:  Solving for Ux, Initial residual = 0.0584408, Final residual = 0.0111454, No Iterations 5
nonePBiCGStab:  Solving for Uy, Initial residual = 0.172009, Final residual = 0.0399179, No Iterations 5
nonePBiCGStab:  Solving for Uz, Initial residual = 0.609861, Final residual = 0.14255, No Iterations 5
[OGL LOG] init_preconditioner : 0 ms
[OGL LOG] solve : 4665 ms
noneompGKOBiCGStab:  Solving for p, Initial residual = 0.730359, Final residual = 6.19227e-07, No Iterations 503
time step continuity errors : sum local = 8.48648e-08, global = -8.68756e-21, cumulative = -6.28824e-21
[OGL LOG] init_preconditioner : 0 ms
[OGL LOG] solve : 5013 ms
noneompGKOBiCGStab:  Solving for p, Initial residual = 0.660961, Final residual = 7.58203e-07, No Iterations 556
time step continuity errors : sum local = 9.56816e-08, global = 1.09644e-20, cumulative = 4.67614e-21
ExecutionTime = 482.01 s  ClockTime = 37 s

Time = 0.00533333

Courant Number mean: 0.09481 max: 0.902545
nonePBiCGStab:  Solving for Ux, Initial residual = 0.0345892, Final residual = 0.00682973, No Iterations 5
nonePBiCGStab:  Solving for Uy, Initial residual = 0.119562, Final residual = 0.0298583, No Iterations 5
nonePBiCGStab:  Solving for Uz, Initial residual = 0.386148, Final residual = 0.08162, No Iterations 5
[OGL LOG] init_preconditioner : 0 ms
[OGL LOG] solve : 5050 ms
noneompGKOBiCGStab:  Solving for p, Initial residual = 0.609833, Final residual = 9.28761e-07, No Iterations 558
time step continuity errors : sum local = 2.0741e-08, global = -3.89895e-24, cumulative = 4.67224e-21
[OGL LOG] init_preconditioner : 0 ms
[OGL LOG] solve : 2771 ms
noneompGKOBiCGStab:  Solving for p, Initial residual = 0.521141, Final residual = 8.20244e-07, No Iterations 305
time step continuity errors : sum local = 1.53474e-09, global = -2.18984e-20, cumulative = -1.72261e-20
ExecutionTime = 607.46 s  ClockTime = 46 s

Time = 0.00666667

Courant Number mean: 0.107175 max: 0.916754
nonePBiCGStab:  Solving for Ux, Initial residual = 0.0257307, Final residual = 0.00503082, No Iterations 5
nonePBiCGStab:  Solving for Uy, Initial residual = 0.0750601, Final residual = 0.0208517, No Iterations 5
nonePBiCGStab:  Solving for Uz, Initial residual = 0.212705, Final residual = 0.0497137, No Iterations 5
[OGL LOG] init_preconditioner : 0 ms
[OGL LOG] solve : 4847 ms
noneompGKOBiCGStab:  Solving for p, Initial residual = 0.629334, Final residual = 8.40292e-07, No Iterations 537
time step continuity errors : sum local = 1.59674e-08, global = -8.18546e-21, cumulative = -2.54116e-20
[OGL LOG] init_preconditioner : 0 ms
[OGL LOG] solve : 5011 ms
noneompGKOBiCGStab:  Solving for p, Initial residual = 0.552186, Final residual = 8.82134e-07, No Iterations 548
time step continuity errors : sum local = 2.50632e-09, global = 1.41209e-20, cumulative = -1.12907e-20
ExecutionTime = 765.42 s  ClockTime = 56 s

End

