/*---------------------------------------------------------------------------*\
  =========                 |
  \\      /  F ield         | OpenFOAM: The Open Source CFD Toolbox
   \\    /   O peration     | Website:  https://openfoam.org
    \\  /    A nd           | Version:  8
     \\/     M anipulation  |
\*---------------------------------------------------------------------------*/
Build  : 8-13d66902f78c
Exec   : icoFoam
Date   : Jul 04 2021
Time   : 09:05:19
Host   : "uc2n446.localdomain"
PID    : 630470
I/O    : uncollated
Case   : /pfs/data5/home/kit/scc/nq7776/code/OGL_DATA/lidDrivenCavity3D/v0.1-136-g40fef35/f584ccac99/IntelXeonGold6230CPU@2.10GHz/Test_2021-07-04-09:02:32/75/p-BiCGStab-OF-none-reference/lidDrivenCavity3D
nProcs : 1
sigFpe : Enabling floating point exception trapping (FOAM_SIGFPE).
fileModificationChecking : Monitoring run-time modified files using timeStampMaster (fileModificationSkew 10)
allowSystemOperations : Allowing user-supplied system call operations

// * * * * * * * * * * * * * * * * * * * * * * * * * * * * * * * * * * * * * //
Create time

Create mesh for time = 0

Reading transportProperties

Reading field p

Reading field U

Reading/calculating face flux field phi


Starting time loop

Time = 0.00133333

Courant Number mean: 0 max: 0
nonePBiCGStab:  Solving for Ux, Initial residual = 1, Final residual = 0.0730231, No Iterations 5
nonePBiCGStab:  Solving for Uy, Initial residual = 0, Final residual = 0, No Iterations 0
nonePBiCGStab:  Solving for Uz, Initial residual = 0, Final residual = 0, No Iterations 0
nonePBiCGStab:  Solving for p, Initial residual = 1, Final residual = 1.84397e-07, No Iterations 541
time step continuity errors : sum local = 2.34297e-10, global = 7.05797e-21, cumulative = 7.05797e-21
nonePBiCGStab:  Solving for p, Initial residual = 0.697107, Final residual = 2.13226e-07, No Iterations 543
time step continuity errors : sum local = 3.74372e-10, global = 2.11266e-21, cumulative = 9.17063e-21
ExecutionTime = 13.77 s  ClockTime = 13 s

Time = 0.00266667

Courant Number mean: 0.0508075 max: 0.767232
nonePBiCGStab:  Solving for Ux, Initial residual = 0.140592, Final residual = 0.0324524, No Iterations 5
nonePBiCGStab:  Solving for Uy, Initial residual = 0.413642, Final residual = 0.0923278, No Iterations 5
nonePBiCGStab:  Solving for Uz, Initial residual = 0.983207, Final residual = 0.249881, No Iterations 5
nonePBiCGStab:  Solving for p, Initial residual = 0.746898, Final residual = 5.04347e-07, No Iterations 556
time step continuity errors : sum local = 1.30139e-09, global = 1.46549e-20, cumulative = 2.38256e-20
nonePBiCGStab:  Solving for p, Initial residual = 0.668135, Final residual = 9.07889e-07, No Iterations 539
time step continuity errors : sum local = 2.49358e-09, global = 2.35384e-20, cumulative = 4.7364e-20
ExecutionTime = 26.11 s  ClockTime = 26 s

Time = 0.004

Courant Number mean: 0.0796134 max: 0.886021
nonePBiCGStab:  Solving for Ux, Initial residual = 0.0584495, Final residual = 0.0111486, No Iterations 5
nonePBiCGStab:  Solving for Uy, Initial residual = 0.171957, Final residual = 0.0398801, No Iterations 5
nonePBiCGStab:  Solving for Uz, Initial residual = 0.610816, Final residual = 0.14227, No Iterations 5
nonePBiCGStab:  Solving for p, Initial residual = 0.730365, Final residual = 4.57692e-07, No Iterations 536
time step continuity errors : sum local = 8.92385e-10, global = 1.44624e-21, cumulative = 4.88102e-20
nonePBiCGStab:  Solving for p, Initial residual = 0.660903, Final residual = 6.32661e-07, No Iterations 528
time step continuity errors : sum local = 1.23056e-09, global = -2.15403e-20, cumulative = 2.727e-20
ExecutionTime = 38.16 s  ClockTime = 38 s

Time = 0.00533333

Courant Number mean: 0.0948105 max: 0.902547
nonePBiCGStab:  Solving for Ux, Initial residual = 0.0345929, Final residual = 0.00682863, No Iterations 5
nonePBiCGStab:  Solving for Uy, Initial residual = 0.119554, Final residual = 0.0298206, No Iterations 5
nonePBiCGStab:  Solving for Uz, Initial residual = 0.386439, Final residual = 0.080712, No Iterations 5
nonePBiCGStab:  Solving for p, Initial residual = 0.609805, Final residual = 8.7688e-07, No Iterations 535
time step continuity errors : sum local = 1.7295e-09, global = 2.06713e-20, cumulative = 4.79413e-20
nonePBiCGStab:  Solving for p, Initial residual = 0.521108, Final residual = 9.31472e-07, No Iterations 534
time step continuity errors : sum local = 1.8765e-09, global = -1.97234e-20, cumulative = 2.82178e-20
ExecutionTime = 50.25 s  ClockTime = 50 s

Time = 0.00666667

Courant Number mean: 0.107177 max: 0.916755
nonePBiCGStab:  Solving for Ux, Initial residual = 0.0257361, Final residual = 0.00503229, No Iterations 5
nonePBiCGStab:  Solving for Uy, Initial residual = 0.0750406, Final residual = 0.0208176, No Iterations 5
nonePBiCGStab:  Solving for Uz, Initial residual = 0.213086, Final residual = 0.0496892, No Iterations 5
nonePBiCGStab:  Solving for p, Initial residual = 0.629329, Final residual = 9.98506e-07, No Iterations 503
time step continuity errors : sum local = 9.32436e-10, global = -1.84501e-21, cumulative = 2.63728e-20
nonePBiCGStab:  Solving for p, Initial residual = 0.552155, Final residual = 7.30926e-07, No Iterations 454
time step continuity errors : sum local = 8.88067e-10, global = 1.29225e-20, cumulative = 3.92953e-20
ExecutionTime = 61.25 s  ClockTime = 61 s

End

