/*---------------------------------------------------------------------------*\
  =========                 |
  \\      /  F ield         | OpenFOAM: The Open Source CFD Toolbox
   \\    /   O peration     | Website:  https://openfoam.org
    \\  /    A nd           | Version:  8
     \\/     M anipulation  |
\*---------------------------------------------------------------------------*/
Build  : 8-13d66902f78c
Exec   : icoFoam
Date   : Jul 04 2021
Time   : 08:43:02
Host   : "uc2n415.localdomain"
PID    : 2604743
I/O    : uncollated
Case   : /pfs/data5/home/kit/scc/nq7776/code/OGL_DATA/lidDrivenCavity3D/v0.1-136-g40fef35/f584ccac99/IntelXeonGold6230CPU@2.10GHz/Test_2021-07-04-08:36:30/25/p-U-BiCGStab-GKO-none-omp/lidDrivenCavity3D
nProcs : 1
sigFpe : Enabling floating point exception trapping (FOAM_SIGFPE).
fileModificationChecking : Monitoring run-time modified files using timeStampMaster (fileModificationSkew 10)
allowSystemOperations : Allowing user-supplied system call operations

// * * * * * * * * * * * * * * * * * * * * * * * * * * * * * * * * * * * * * //
Create time

Create mesh for time = 0

Reading transportProperties

Reading field p

Reading field U

Reading/calculating face flux field phi


Starting time loop

Time = 0.016

Courant Number mean: 0 max: 0
[OGL LOG] init_host_sparsity_pattern : 4 ms
[OGL LOG] matrix not stored update host matrix
[OGL LOG] update_host_mtx : 2 ms
[OGL LOG] matrix is not yet sorted, compute sorting idxs
[OGL LOG] compute_sort : 105 ms
[OGL LOG] matrix is not yet sorted, sorting host matrix
[OGL LOG] sort_host_mtx_sparsity_pattern : 2 ms
[OGL LOG] sort_host_mtx : 1 ms
[OGL LOG] init_preconditioner : 0 ms
[OGL LOG] solve : 114 ms
noneompGKOBiCGStab:  Solving for Ux, Initial residual = 1, Final residual = 9.17551e-07, No Iterations 42
[OGL LOG] init_host_sparsity_pattern : 6 ms
[OGL LOG] matrix not stored update host matrix
[OGL LOG] update_host_mtx : 2 ms
[OGL LOG] matrix is not yet sorted, sorting host matrix
[OGL LOG] sort_host_mtx_sparsity_pattern : 2 ms
[OGL LOG] sort_host_mtx : 1 ms
[OGL LOG] init_preconditioner : 0 ms
[OGL LOG] solve : 0 ms
noneompGKOBiCGStab:  Solving for Uy, Initial residual = 0, Final residual = 0, No Iterations 0
[OGL LOG] init_host_sparsity_pattern : 6 ms
[OGL LOG] matrix not stored update host matrix
[OGL LOG] update_host_mtx : 1 ms
[OGL LOG] matrix is not yet sorted, sorting host matrix
[OGL LOG] sort_host_mtx_sparsity_pattern : 2 ms
[OGL LOG] sort_host_mtx : 1 ms
[OGL LOG] init_preconditioner : 0 ms
[OGL LOG] solve : 1 ms
noneompGKOBiCGStab:  Solving for Uz, Initial residual = 0, Final residual = 0, No Iterations 0
[OGL LOG] init_host_sparsity_pattern : 5 ms
[OGL LOG] matrix not stored update host matrix
[OGL LOG] update_host_mtx : 2 ms
[OGL LOG] matrix is not yet sorted, sorting host matrix
[OGL LOG] sort_host_mtx_sparsity_pattern : 2 ms
[OGL LOG] sort_host_mtx : 1 ms
[OGL LOG] init_preconditioner : 0 ms
[OGL LOG] solve : 150 ms
noneompGKOBiCGStab:  Solving for p, Initial residual = 1, Final residual = 9.32806e-07, No Iterations 171
time step continuity errors : sum local = 3.11598e-07, global = -6.89075e-20, cumulative = -6.89075e-20
[OGL LOG] init_preconditioner : 0 ms
[OGL LOG] solve : 142 ms
noneompGKOBiCGStab:  Solving for p, Initial residual = 0.752922, Final residual = 6.61862e-07, No Iterations 166
time step continuity errors : sum local = 3.57672e-07, global = 3.20224e-19, cumulative = 2.51317e-19
ExecutionTime = 27.62 s  ClockTime = 1 s

Time = 0.032

Courant Number mean: 0.51472 max: 2.81436
[OGL LOG] init_host_sparsity_pattern : 5 ms
[OGL LOG] matrix not stored update host matrix
[OGL LOG] update_host_mtx : 1 ms
[OGL LOG] matrix is not yet sorted, sorting host matrix
[OGL LOG] sort_host_mtx_sparsity_pattern : 2 ms
[OGL LOG] sort_host_mtx : 1 ms
[OGL LOG] init_preconditioner : 0 ms
[OGL LOG] solve : 33 ms
noneompGKOBiCGStab:  Solving for Ux, Initial residual = 0.237241, Final residual = 9.12521e-07, No Iterations 38
[OGL LOG] init_host_sparsity_pattern : 6 ms
[OGL LOG] matrix not stored update host matrix
[OGL LOG] update_host_mtx : 1 ms
[OGL LOG] matrix is not yet sorted, sorting host matrix
[OGL LOG] sort_host_mtx_sparsity_pattern : 2 ms
[OGL LOG] sort_host_mtx : 1 ms
[OGL LOG] init_preconditioner : 0 ms
[OGL LOG] solve : 39 ms
noneompGKOBiCGStab:  Solving for Uy, Initial residual = 0.587627, Final residual = 5.50914e-07, No Iterations 45
[OGL LOG] init_host_sparsity_pattern : 6 ms
[OGL LOG] matrix not stored update host matrix
[OGL LOG] update_host_mtx : 1 ms
[OGL LOG] matrix is not yet sorted, sorting host matrix
[OGL LOG] sort_host_mtx_sparsity_pattern : 2 ms
[OGL LOG] sort_host_mtx : 1 ms
[OGL LOG] init_preconditioner : 0 ms
[OGL LOG] solve : 35 ms
noneompGKOBiCGStab:  Solving for Uz, Initial residual = 0.353227, Final residual = 9.50102e-07, No Iterations 40
[OGL LOG] init_preconditioner : 0 ms
[OGL LOG] solve : 144 ms
noneompGKOBiCGStab:  Solving for p, Initial residual = 0.763182, Final residual = 7.2997e-07, No Iterations 166
time step continuity errors : sum local = 4.67207e-07, global = 2.36957e-19, cumulative = 4.88274e-19
[OGL LOG] init_preconditioner : 0 ms
[OGL LOG] solve : 144 ms
noneompGKOBiCGStab:  Solving for p, Initial residual = 0.683089, Final residual = 5.38096e-07, No Iterations 166
time step continuity errors : sum local = 8.85118e-07, global = -8.24476e-20, cumulative = 4.05827e-19
ExecutionTime = 54.64 s  ClockTime = 1 s

Time = 0.048

Courant Number mean: 0.758096 max: 3.79785
[OGL LOG] init_host_sparsity_pattern : 5 ms
[OGL LOG] matrix not stored update host matrix
[OGL LOG] update_host_mtx : 1 ms
[OGL LOG] matrix is not yet sorted, sorting host matrix
[OGL LOG] sort_host_mtx_sparsity_pattern : 2 ms
[OGL LOG] sort_host_mtx : 1 ms
[OGL LOG] init_preconditioner : 0 ms
[OGL LOG] solve : 33 ms
noneompGKOBiCGStab:  Solving for Ux, Initial residual = 0.201754, Final residual = 5.76601e-07, No Iterations 38
[OGL LOG] init_host_sparsity_pattern : 6 ms
[OGL LOG] matrix not stored update host matrix
[OGL LOG] update_host_mtx : 1 ms
[OGL LOG] matrix is not yet sorted, sorting host matrix
[OGL LOG] sort_host_mtx_sparsity_pattern : 2 ms
[OGL LOG] sort_host_mtx : 1 ms
[OGL LOG] init_preconditioner : 0 ms
[OGL LOG] solve : 36 ms
noneompGKOBiCGStab:  Solving for Uy, Initial residual = 0.531106, Final residual = 4.25342e-07, No Iterations 42
[OGL LOG] init_host_sparsity_pattern : 6 ms
[OGL LOG] matrix not stored update host matrix
[OGL LOG] update_host_mtx : 1 ms
[OGL LOG] matrix is not yet sorted, sorting host matrix
[OGL LOG] sort_host_mtx_sparsity_pattern : 2 ms
[OGL LOG] sort_host_mtx : 1 ms
[OGL LOG] init_preconditioner : 0 ms
[OGL LOG] solve : 35 ms
noneompGKOBiCGStab:  Solving for Uz, Initial residual = 0.358738, Final residual = 6.05959e-07, No Iterations 40
[OGL LOG] init_preconditioner : 0 ms
[OGL LOG] solve : 156 ms
noneompGKOBiCGStab:  Solving for p, Initial residual = 0.77707, Final residual = 8.97505e-07, No Iterations 166
time step continuity errors : sum local = 4.65454e-07, global = 7.10767e-19, cumulative = 1.11659e-18
[OGL LOG] init_preconditioner : 0 ms
[OGL LOG] solve : 142 ms
noneompGKOBiCGStab:  Solving for p, Initial residual = 0.74813, Final residual = 9.79186e-07, No Iterations 164
time step continuity errors : sum local = 7.86816e-07, global = -1.53243e-20, cumulative = 1.10127e-18
ExecutionTime = 82.19 s  ClockTime = 2 s

Time = 0.064

Courant Number mean: 0.685364 max: 3.20055
[OGL LOG] init_host_sparsity_pattern : 4 ms
[OGL LOG] matrix not stored update host matrix
[OGL LOG] update_host_mtx : 1 ms
[OGL LOG] matrix is not yet sorted, sorting host matrix
[OGL LOG] sort_host_mtx_sparsity_pattern : 3 ms
[OGL LOG] sort_host_mtx : 1 ms
[OGL LOG] init_preconditioner : 0 ms
[OGL LOG] solve : 34 ms
noneompGKOBiCGStab:  Solving for Ux, Initial residual = 0.152727, Final residual = 6.38466e-07, No Iterations 39
[OGL LOG] init_host_sparsity_pattern : 6 ms
[OGL LOG] matrix not stored update host matrix
[OGL LOG] update_host_mtx : 1 ms
[OGL LOG] matrix is not yet sorted, sorting host matrix
[OGL LOG] sort_host_mtx_sparsity_pattern : 2 ms
[OGL LOG] sort_host_mtx : 1 ms
[OGL LOG] init_preconditioner : 0 ms
[OGL LOG] solve : 36 ms
noneompGKOBiCGStab:  Solving for Uy, Initial residual = 0.317476, Final residual = 9.07474e-07, No Iterations 42
[OGL LOG] init_host_sparsity_pattern : 6 ms
[OGL LOG] matrix not stored update host matrix
[OGL LOG] update_host_mtx : 1 ms
[OGL LOG] matrix is not yet sorted, sorting host matrix
[OGL LOG] sort_host_mtx_sparsity_pattern : 2 ms
[OGL LOG] sort_host_mtx : 1 ms
[OGL LOG] init_preconditioner : 0 ms
[OGL LOG] solve : 34 ms
noneompGKOBiCGStab:  Solving for Uz, Initial residual = 0.699247, Final residual = 9.00309e-07, No Iterations 39
[OGL LOG] init_preconditioner : 0 ms
[OGL LOG] solve : 142 ms
noneompGKOBiCGStab:  Solving for p, Initial residual = 0.704102, Final residual = 2.98928e-07, No Iterations 169
time step continuity errors : sum local = 1.06775e-05, global = 3.96789e-19, cumulative = 1.49806e-18
[OGL LOG] init_preconditioner : 0 ms
[OGL LOG] solve : 144 ms
noneompGKOBiCGStab:  Solving for p, Initial residual = 0.618326, Final residual = 6.15079e-07, No Iterations 167
time step continuity errors : sum local = 6.80926e-07, global = -3.06334e-19, cumulative = 1.19172e-18
ExecutionTime = 108.99 s  ClockTime = 2 s

Time = 0.08

Courant Number mean: 0.78381 max: 3.73322
[OGL LOG] init_host_sparsity_pattern : 5 ms
[OGL LOG] matrix not stored update host matrix
[OGL LOG] update_host_mtx : 1 ms
[OGL LOG] matrix is not yet sorted, sorting host matrix
[OGL LOG] sort_host_mtx_sparsity_pattern : 2 ms
[OGL LOG] sort_host_mtx : 1 ms
[OGL LOG] init_preconditioner : 0 ms
[OGL LOG] solve : 33 ms
noneompGKOBiCGStab:  Solving for Ux, Initial residual = 0.123971, Final residual = 9.75129e-07, No Iterations 38
[OGL LOG] init_host_sparsity_pattern : 6 ms
[OGL LOG] matrix not stored update host matrix
[OGL LOG] update_host_mtx : 1 ms
[OGL LOG] matrix is not yet sorted, sorting host matrix
[OGL LOG] sort_host_mtx_sparsity_pattern : 2 ms
[OGL LOG] sort_host_mtx : 1 ms
[OGL LOG] init_preconditioner : 0 ms
[OGL LOG] solve : 33 ms
noneompGKOBiCGStab:  Solving for Uy, Initial residual = 0.296647, Final residual = 8.0137e-07, No Iterations 38
[OGL LOG] init_host_sparsity_pattern : 6 ms
[OGL LOG] matrix not stored update host matrix
[OGL LOG] update_host_mtx : 1 ms
[OGL LOG] matrix is not yet sorted, sorting host matrix
[OGL LOG] sort_host_mtx_sparsity_pattern : 2 ms
[OGL LOG] sort_host_mtx : 1 ms
[OGL LOG] init_preconditioner : 0 ms
[OGL LOG] solve : 33 ms
noneompGKOBiCGStab:  Solving for Uz, Initial residual = 0.452687, Final residual = 9.92052e-07, No Iterations 38
[OGL LOG] init_preconditioner : 0 ms
[OGL LOG] solve : 145 ms
noneompGKOBiCGStab:  Solving for p, Initial residual = 0.705412, Final residual = 9.31684e-07, No Iterations 170
time step continuity errors : sum local = 5.92666e-07, global = -3.81105e-19, cumulative = 8.10618e-19
[OGL LOG] init_preconditioner : 0 ms
[OGL LOG] solve : 137 ms
noneompGKOBiCGStab:  Solving for p, Initial residual = 0.668995, Final residual = 7.21575e-07, No Iterations 157
time step continuity errors : sum local = 5.21074e-08, global = 2.38506e-19, cumulative = 1.04912e-18
ExecutionTime = 135.07 s  ClockTime = 3 s

End

