/*---------------------------------------------------------------------------*\
  =========                 |
  \\      /  F ield         | OpenFOAM: The Open Source CFD Toolbox
   \\    /   O peration     | Website:  https://openfoam.org
    \\  /    A nd           | Version:  8
     \\/     M anipulation  |
\*---------------------------------------------------------------------------*/
Build  : 8-13d66902f78c
Exec   : icoFoam
Date   : Jul 04 2021
Time   : 07:32:39
Host   : "uc2n390.localdomain"
PID    : 2097875
I/O    : uncollated
Case   : /pfs/data5/home/kit/scc/nq7776/code/OGL_DATA/lidDrivenCavity3D/v0.1-136-g40fef35/f584ccac99/IntelXeonGold6230CPU@2.10GHz/Test_2021-07-04-07:26:56/25/p-IR-GKO-none-omp/lidDrivenCavity3D
nProcs : 1
sigFpe : Enabling floating point exception trapping (FOAM_SIGFPE).
fileModificationChecking : Monitoring run-time modified files using timeStampMaster (fileModificationSkew 10)
allowSystemOperations : Allowing user-supplied system call operations

// * * * * * * * * * * * * * * * * * * * * * * * * * * * * * * * * * * * * * //
Create time

Create mesh for time = 0

Reading transportProperties

Reading field p

Reading field U

Reading/calculating face flux field phi


Starting time loop

Time = 0.004

Courant Number mean: 0 max: 0
nonePBiCGStab:  Solving for Ux, Initial residual = 1, Final residual = 0.0337517, No Iterations 5
nonePBiCGStab:  Solving for Uy, Initial residual = 0, Final residual = 0, No Iterations 0
nonePBiCGStab:  Solving for Uz, Initial residual = 0, Final residual = 0, No Iterations 0
[OGL LOG] init_host_sparsity_pattern : 4 ms
[OGL LOG] matrix not stored update host matrix
[OGL LOG] update_host_mtx : 2 ms
[OGL LOG] matrix is not yet sorted, compute sorting idxs
[OGL LOG] compute_sort : 105 ms
[OGL LOG] matrix is not yet sorted, sorting host matrix
[OGL LOG] sort_host_mtx_sparsity_pattern : 2 ms
[OGL LOG] sort_host_mtx : 1 ms
[OGL LOG] init_preconditioner : 0 ms
[OGL LOG] solve : 95 ms
noneompGKOIR:  Solving for p, Initial residual = 1, Final residual = 4.39505e-08, No Iterations 4
time step continuity errors : sum local = 1.7454e-10, global = -9.14243e-20, cumulative = -9.14243e-20
[OGL LOG] init_preconditioner : 0 ms
[OGL LOG] solve : 92 ms
noneompGKOIR:  Solving for p, Initial residual = 0.622285, Final residual = 1.76302e-08, No Iterations 4
time step continuity errors : sum local = 1.02404e-10, global = 1.59296e-20, cumulative = -7.54947e-20
ExecutionTime = 6.46 s  ClockTime = 0 s

Time = 0.008

Courant Number mean: 0.084228 max: 0.621061
nonePBiCGStab:  Solving for Ux, Initial residual = 0.149589, Final residual = 0.00942683, No Iterations 5
nonePBiCGStab:  Solving for Uy, Initial residual = 0.281195, Final residual = 0.0142199, No Iterations 5
nonePBiCGStab:  Solving for Uz, Initial residual = 0.933287, Final residual = 0.0511081, No Iterations 5
[OGL LOG] init_preconditioner : 0 ms
[OGL LOG] solve : 76 ms
noneompGKOIR:  Solving for p, Initial residual = 0.518045, Final residual = 9.63659e-09, No Iterations 4
time step continuity errors : sum local = 7.14486e-11, global = 2.20948e-20, cumulative = -5.33999e-20
[OGL LOG] init_preconditioner : 0 ms
[OGL LOG] solve : 61 ms
noneompGKOIR:  Solving for p, Initial residual = 0.415898, Final residual = 7.715e-07, No Iterations 3
time step continuity errors : sum local = 4.71827e-09, global = 1.16744e-19, cumulative = 6.33437e-20
ExecutionTime = 11.14 s  ClockTime = 1 s

Time = 0.012

Courant Number mean: 0.124051 max: 0.792234
nonePBiCGStab:  Solving for Ux, Initial residual = 0.0425002, Final residual = 0.00204637, No Iterations 5
nonePBiCGStab:  Solving for Uy, Initial residual = 0.0761453, Final residual = 0.00263682, No Iterations 5
nonePBiCGStab:  Solving for Uz, Initial residual = 0.14271, Final residual = 0.00668455, No Iterations 5
[OGL LOG] init_preconditioner : 0 ms
[OGL LOG] solve : 60 ms
noneompGKOIR:  Solving for p, Initial residual = 0.279188, Final residual = 4.23745e-07, No Iterations 3
time step continuity errors : sum local = 1.85298e-09, global = -2.0168e-20, cumulative = 4.31757e-20
[OGL LOG] init_preconditioner : 0 ms
[OGL LOG] solve : 60 ms
noneompGKOIR:  Solving for p, Initial residual = 0.224051, Final residual = 3.89735e-07, No Iterations 3
time step continuity errors : sum local = 1.67234e-09, global = 1.92235e-20, cumulative = 6.23992e-20
ExecutionTime = 15.24 s  ClockTime = 1 s

Time = 0.016

Courant Number mean: 0.142529 max: 0.824384
nonePBiCGStab:  Solving for Ux, Initial residual = 0.0219032, Final residual = 0.00075246, No Iterations 5
nonePBiCGStab:  Solving for Uy, Initial residual = 0.0474704, Final residual = 0.000975034, No Iterations 5
nonePBiCGStab:  Solving for Uz, Initial residual = 0.0926543, Final residual = 0.00322908, No Iterations 5
[OGL LOG] init_preconditioner : 0 ms
[OGL LOG] solve : 61 ms
noneompGKOIR:  Solving for p, Initial residual = 0.13855, Final residual = 2.1709e-07, No Iterations 3
time step continuity errors : sum local = 9.25744e-10, global = -1.1216e-19, cumulative = -4.97603e-20
[OGL LOG] init_preconditioner : 0 ms
[OGL LOG] solve : 61 ms
noneompGKOIR:  Solving for p, Initial residual = 0.106559, Final residual = 1.69086e-07, No Iterations 3
time step continuity errors : sum local = 7.29329e-10, global = -8.68559e-20, cumulative = -1.36616e-19
ExecutionTime = 19.43 s  ClockTime = 1 s

Time = 0.02

Courant Number mean: 0.154857 max: 0.843613
nonePBiCGStab:  Solving for Ux, Initial residual = 0.0136635, Final residual = 0.000405684, No Iterations 5
nonePBiCGStab:  Solving for Uy, Initial residual = 0.0288036, Final residual = 0.000728011, No Iterations 5
nonePBiCGStab:  Solving for Uz, Initial residual = 0.0551893, Final residual = 0.00171377, No Iterations 5
[OGL LOG] init_preconditioner : 0 ms
[OGL LOG] solve : 58 ms
noneompGKOIR:  Solving for p, Initial residual = 0.0654138, Final residual = 8.32716e-08, No Iterations 3
time step continuity errors : sum local = 3.44036e-10, global = -1.46203e-19, cumulative = -2.82819e-19
[OGL LOG] init_preconditioner : 0 ms
[OGL LOG] solve : 63 ms
noneompGKOIR:  Solving for p, Initial residual = 0.0510736, Final residual = 7.10077e-08, No Iterations 3
time step continuity errors : sum local = 2.91345e-10, global = -4.59106e-20, cumulative = -3.2873e-19
ExecutionTime = 23.54 s  ClockTime = 1 s

End

