/*---------------------------------------------------------------------------*\
  =========                 |
  \\      /  F ield         | OpenFOAM: The Open Source CFD Toolbox
   \\    /   O peration     | Website:  https://openfoam.org
    \\  /    A nd           | Version:  8
     \\/     M anipulation  |
\*---------------------------------------------------------------------------*/
Build  : 8-13d66902f78c
Exec   : icoFoam
Date   : Jul 04 2021
Time   : 08:18:33
Host   : "uc2n445.localdomain"
PID    : 2185790
I/O    : uncollated
Case   : /pfs/data5/home/kit/scc/nq7776/code/OGL_DATA/lidDrivenCavity3D/v0.1-136-g40fef35/f584ccac99/IntelXeonGold6230CPU@2.10GHz/Test_2021-07-04-08:13:47/25/p-BiCGStab-GKO-BJ-omp/lidDrivenCavity3D
nProcs : 1
sigFpe : Enabling floating point exception trapping (FOAM_SIGFPE).
fileModificationChecking : Monitoring run-time modified files using timeStampMaster (fileModificationSkew 10)
allowSystemOperations : Allowing user-supplied system call operations

// * * * * * * * * * * * * * * * * * * * * * * * * * * * * * * * * * * * * * //
Create time

Create mesh for time = 0

Reading transportProperties

Reading field p

Reading field U

Reading/calculating face flux field phi


Starting time loop

Time = 0.004

Courant Number mean: 0 max: 0
nonePBiCGStab:  Solving for Ux, Initial residual = 1, Final residual = 0.0337517, No Iterations 5
nonePBiCGStab:  Solving for Uy, Initial residual = 0, Final residual = 0, No Iterations 0
nonePBiCGStab:  Solving for Uz, Initial residual = 0, Final residual = 0, No Iterations 0
[OGL LOG] init_host_sparsity_pattern : 4 ms
[OGL LOG] matrix not stored update host matrix
[OGL LOG] update_host_mtx : 2 ms
[OGL LOG] matrix is not yet sorted, compute sorting idxs
[OGL LOG] compute_sort : 106 ms
[OGL LOG] matrix is not yet sorted, sorting host matrix
[OGL LOG] sort_host_mtx_sparsity_pattern : 2 ms
[OGL LOG] sort_host_mtx : 1 ms
[OGL LOG] init_preconditioner : 1 ms
[OGL LOG] solve : 106 ms
BJompGKOBiCGStab:  Solving for p, Initial residual = 1, Final residual = 9.96727e-07, No Iterations 141
time step continuity errors : sum local = 7.47535e-07, global = 1.17054e-20, cumulative = 1.17054e-20
[OGL LOG] init_preconditioner : 0 ms
[OGL LOG] solve : 97 ms
BJompGKOBiCGStab:  Solving for p, Initial residual = 0.622341, Final residual = 8.69034e-07, No Iterations 130
time step continuity errors : sum local = 4.87664e-08, global = -3.09099e-22, cumulative = 1.13963e-20
ExecutionTime = 3.61 s  ClockTime = 1 s

Time = 0.008

Courant Number mean: 0.084228 max: 0.621061
nonePBiCGStab:  Solving for Ux, Initial residual = 0.149592, Final residual = 0.00942729, No Iterations 5
nonePBiCGStab:  Solving for Uy, Initial residual = 0.281198, Final residual = 0.0142316, No Iterations 5
nonePBiCGStab:  Solving for Uz, Initial residual = 0.933221, Final residual = 0.0513382, No Iterations 5
[OGL LOG] init_preconditioner : 0 ms
[OGL LOG] solve : 92 ms
BJompGKOBiCGStab:  Solving for p, Initial residual = 0.518049, Final residual = 8.71374e-07, No Iterations 123
time step continuity errors : sum local = 9.02905e-08, global = 1.58956e-20, cumulative = 2.7292e-20
[OGL LOG] init_preconditioner : 0 ms
[OGL LOG] solve : 101 ms
BJompGKOBiCGStab:  Solving for p, Initial residual = 0.415894, Final residual = 8.36472e-07, No Iterations 122
time step continuity errors : sum local = 4.64241e-08, global = -7.11252e-20, cumulative = -4.38333e-20
ExecutionTime = 6.84 s  ClockTime = 1 s

Time = 0.012

Courant Number mean: 0.124051 max: 0.792234
nonePBiCGStab:  Solving for Ux, Initial residual = 0.0424962, Final residual = 0.00204597, No Iterations 5
nonePBiCGStab:  Solving for Uy, Initial residual = 0.0761586, Final residual = 0.00263718, No Iterations 5
nonePBiCGStab:  Solving for Uz, Initial residual = 0.142749, Final residual = 0.00673873, No Iterations 5
[OGL LOG] init_preconditioner : 0 ms
[OGL LOG] solve : 96 ms
BJompGKOBiCGStab:  Solving for p, Initial residual = 0.279203, Final residual = 6.57149e-07, No Iterations 117
time step continuity errors : sum local = 4.12787e-07, global = 2.23581e-20, cumulative = -2.14752e-20
[OGL LOG] init_preconditioner : 0 ms
[OGL LOG] solve : 102 ms
BJompGKOBiCGStab:  Solving for p, Initial residual = 0.224089, Final residual = 2.31453e-07, No Iterations 123
time step continuity errors : sum local = 1.44596e-07, global = -6.94436e-20, cumulative = -9.09188e-20
ExecutionTime = 10.14 s  ClockTime = 1 s

Time = 0.016

Courant Number mean: 0.142529 max: 0.824385
nonePBiCGStab:  Solving for Ux, Initial residual = 0.0219078, Final residual = 0.00075786, No Iterations 5
nonePBiCGStab:  Solving for Uy, Initial residual = 0.0474616, Final residual = 0.00098365, No Iterations 5
nonePBiCGStab:  Solving for Uz, Initial residual = 0.0930409, Final residual = 0.00362794, No Iterations 5
[OGL LOG] init_preconditioner : 0 ms
[OGL LOG] solve : 93 ms
BJompGKOBiCGStab:  Solving for p, Initial residual = 0.138591, Final residual = 9.91907e-07, No Iterations 113
time step continuity errors : sum local = 6.57091e-08, global = -1.5989e-19, cumulative = -2.50809e-19
[OGL LOG] init_preconditioner : 0 ms
[OGL LOG] solve : 94 ms
BJompGKOBiCGStab:  Solving for p, Initial residual = 0.106595, Final residual = 7.29846e-07, No Iterations 115
time step continuity errors : sum local = 2.57199e-08, global = -1.57038e-19, cumulative = -4.07847e-19
ExecutionTime = 13.26 s  ClockTime = 1 s

Time = 0.02

Courant Number mean: 0.154856 max: 0.843613
nonePBiCGStab:  Solving for Ux, Initial residual = 0.0136626, Final residual = 0.000400891, No Iterations 5
nonePBiCGStab:  Solving for Uy, Initial residual = 0.0288096, Final residual = 0.000713237, No Iterations 5
nonePBiCGStab:  Solving for Uz, Initial residual = 0.0552223, Final residual = 0.00165487, No Iterations 5
[OGL LOG] init_preconditioner : 0 ms
[OGL LOG] solve : 85 ms
BJompGKOBiCGStab:  Solving for p, Initial residual = 0.0654657, Final residual = 6.7925e-07, No Iterations 121
time step continuity errors : sum local = 1.46372e-07, global = 9.4864e-20, cumulative = -3.12983e-19
[OGL LOG] init_preconditioner : 0 ms
[OGL LOG] solve : 74 ms
BJompGKOBiCGStab:  Solving for p, Initial residual = 0.0511302, Final residual = 9.29552e-07, No Iterations 112
time step continuity errors : sum local = 4.18089e-08, global = 2.74967e-20, cumulative = -2.85487e-19
ExecutionTime = 15.92 s  ClockTime = 2 s

End

