/*---------------------------------------------------------------------------*\
  =========                 |
  \\      /  F ield         | OpenFOAM: The Open Source CFD Toolbox
   \\    /   O peration     | Website:  https://openfoam.org
    \\  /    A nd           | Version:  8
     \\/     M anipulation  |
\*---------------------------------------------------------------------------*/
Build  : 8-13d66902f78c
Exec   : icoFoam
Date   : Jul 04 2021
Time   : 07:34:54
Host   : "uc2n380.localdomain"
PID    : 3982751
I/O    : uncollated
Case   : /pfs/data5/home/kit/scc/nq7776/code/OGL_DATA/lidDrivenCavity3D/v0.1-136-g40fef35/f584ccac99/IntelXeonGold6230CPU@2.10GHz/Test_2021-07-04-07:08:38/75/p-CG-GKO-none-omp/lidDrivenCavity3D
nProcs : 1
sigFpe : Enabling floating point exception trapping (FOAM_SIGFPE).
fileModificationChecking : Monitoring run-time modified files using timeStampMaster (fileModificationSkew 10)
allowSystemOperations : Allowing user-supplied system call operations

// * * * * * * * * * * * * * * * * * * * * * * * * * * * * * * * * * * * * * //
Create time

Create mesh for time = 0

Reading transportProperties

Reading field p

Reading field U

Reading/calculating face flux field phi


Starting time loop

Time = 0.00133333

Courant Number mean: 0 max: 0
nonePBiCGStab:  Solving for Ux, Initial residual = 1, Final residual = 0.0730231, No Iterations 5
nonePBiCGStab:  Solving for Uy, Initial residual = 0, Final residual = 0, No Iterations 0
nonePBiCGStab:  Solving for Uz, Initial residual = 0, Final residual = 0, No Iterations 0
[OGL LOG] init_host_sparsity_pattern : 124 ms
[OGL LOG] matrix not stored update host matrix
[OGL LOG] update_host_mtx : 63 ms
[OGL LOG] matrix is not yet sorted, compute sorting idxs
[OGL LOG] compute_sort : 3796 ms
[OGL LOG] matrix is not yet sorted, sorting host matrix
[OGL LOG] sort_host_mtx_sparsity_pattern : 80 ms
[OGL LOG] sort_host_mtx : 51 ms
[OGL LOG] init_preconditioner : 0 ms
[OGL LOG] solve : 6353 ms
noneompGKOCG:  Solving for p, Initial residual = 1, Final residual = 9.46149e-07, No Iterations 672
time step continuity errors : sum local = 6.01127e-10, global = 4.80997e-21, cumulative = 4.80997e-21
[OGL LOG] init_preconditioner : 0 ms
[OGL LOG] solve : 6439 ms
noneompGKOCG:  Solving for p, Initial residual = 0.697106, Final residual = 9.50967e-07, No Iterations 667
time step continuity errors : sum local = 8.42727e-10, global = -8.82542e-21, cumulative = -4.01545e-21
ExecutionTime = 31.86 s  ClockTime = 20 s

Time = 0.00266667

Courant Number mean: 0.0508075 max: 0.767232
nonePBiCGStab:  Solving for Ux, Initial residual = 0.140592, Final residual = 0.0324525, No Iterations 5
nonePBiCGStab:  Solving for Uy, Initial residual = 0.413642, Final residual = 0.0923278, No Iterations 5
nonePBiCGStab:  Solving for Uz, Initial residual = 0.983213, Final residual = 0.249884, No Iterations 5
[OGL LOG] init_preconditioner : 0 ms
[OGL LOG] solve : 6236 ms
noneompGKOCG:  Solving for p, Initial residual = 0.746898, Final residual = 9.62852e-07, No Iterations 644
time step continuity errors : sum local = 1.29654e-09, global = -6.49478e-21, cumulative = -1.05102e-20
[OGL LOG] init_preconditioner : 0 ms
[OGL LOG] solve : 6045 ms
noneompGKOCG:  Solving for p, Initial residual = 0.668136, Final residual = 9.38133e-07, No Iterations 642
time step continuity errors : sum local = 1.28843e-09, global = -5.29068e-21, cumulative = -1.58009e-20
ExecutionTime = 56.92 s  ClockTime = 32 s

Time = 0.004

Courant Number mean: 0.0796134 max: 0.886021
nonePBiCGStab:  Solving for Ux, Initial residual = 0.0584505, Final residual = 0.011149, No Iterations 5
nonePBiCGStab:  Solving for Uy, Initial residual = 0.171953, Final residual = 0.0398782, No Iterations 5
nonePBiCGStab:  Solving for Uz, Initial residual = 0.610947, Final residual = 0.142319, No Iterations 5
[OGL LOG] init_preconditioner : 0 ms
[OGL LOG] solve : 6258 ms
noneompGKOCG:  Solving for p, Initial residual = 0.730362, Final residual = 9.65764e-07, No Iterations 650
time step continuity errors : sum local = 9.66381e-10, global = -1.92339e-20, cumulative = -3.50348e-20
[OGL LOG] init_preconditioner : 0 ms
[OGL LOG] solve : 6225 ms
noneompGKOCG:  Solving for p, Initial residual = 0.660897, Final residual = 9.95619e-07, No Iterations 647
time step continuity errors : sum local = 9.68431e-10, global = -9.70949e-23, cumulative = -3.51319e-20
ExecutionTime = 82.32 s  ClockTime = 45 s

Time = 0.00533333

Courant Number mean: 0.0948105 max: 0.902547
nonePBiCGStab:  Solving for Ux, Initial residual = 0.0345947, Final residual = 0.00682906, No Iterations 5
nonePBiCGStab:  Solving for Uy, Initial residual = 0.11955, Final residual = 0.0298199, No Iterations 5
nonePBiCGStab:  Solving for Uz, Initial residual = 0.386287, Final residual = 0.0806812, No Iterations 5
[OGL LOG] init_preconditioner : 0 ms
[OGL LOG] solve : 6159 ms
noneompGKOCG:  Solving for p, Initial residual = 0.609799, Final residual = 9.7298e-07, No Iterations 640
time step continuity errors : sum local = 9.59709e-10, global = -7.12992e-21, cumulative = -4.22618e-20
[OGL LOG] init_preconditioner : 0 ms
[OGL LOG] solve : 6134 ms
noneompGKOCG:  Solving for p, Initial residual = 0.521107, Final residual = 9.79723e-07, No Iterations 637
time step continuity errors : sum local = 9.87001e-10, global = -9.32124e-21, cumulative = -5.1583e-20
ExecutionTime = 107.35 s  ClockTime = 58 s

Time = 0.00666667

Courant Number mean: 0.107177 max: 0.916755
nonePBiCGStab:  Solving for Ux, Initial residual = 0.0257329, Final residual = 0.00503149, No Iterations 5
nonePBiCGStab:  Solving for Uy, Initial residual = 0.0750464, Final residual = 0.0208209, No Iterations 5
nonePBiCGStab:  Solving for Uz, Initial residual = 0.212732, Final residual = 0.0495464, No Iterations 5
[OGL LOG] init_preconditioner : 0 ms
[OGL LOG] solve : 6120 ms
noneompGKOCG:  Solving for p, Initial residual = 0.629326, Final residual = 9.80715e-07, No Iterations 638
time step continuity errors : sum local = 8.30116e-10, global = -1.42039e-20, cumulative = -6.57869e-20
[OGL LOG] init_preconditioner : 0 ms
[OGL LOG] solve : 6182 ms
noneompGKOCG:  Solving for p, Initial residual = 0.552161, Final residual = 9.5085e-07, No Iterations 637
time step continuity errors : sum local = 7.93378e-10, global = 2.11725e-20, cumulative = -4.46144e-20
ExecutionTime = 132.38 s  ClockTime = 71 s

End

