/*---------------------------------------------------------------------------*\
  =========                 |
  \\      /  F ield         | OpenFOAM: The Open Source CFD Toolbox
   \\    /   O peration     | Website:  https://openfoam.org
    \\  /    A nd           | Version:  8
     \\/     M anipulation  |
\*---------------------------------------------------------------------------*/
Build  : 8-13d66902f78c
Exec   : icoFoam
Date   : Jul 04 2021
Time   : 08:47:17
Host   : "uc2n415.localdomain"
PID    : 2606473
I/O    : uncollated
Case   : /pfs/data5/home/kit/scc/nq7776/code/OGL_DATA/lidDrivenCavity3D/v0.1-136-g40fef35/f584ccac99/IntelXeonGold6230CPU@2.10GHz/Test_2021-07-04-08:36:30/50/p-U-BiCGStab-GKO-none-omp/lidDrivenCavity3D
nProcs : 1
sigFpe : Enabling floating point exception trapping (FOAM_SIGFPE).
fileModificationChecking : Monitoring run-time modified files using timeStampMaster (fileModificationSkew 10)
allowSystemOperations : Allowing user-supplied system call operations

// * * * * * * * * * * * * * * * * * * * * * * * * * * * * * * * * * * * * * //
Create time

Create mesh for time = 0

Reading transportProperties

Reading field p

Reading field U

Reading/calculating face flux field phi


Starting time loop

Time = 0.002

Courant Number mean: 0 max: 0
[OGL LOG] init_host_sparsity_pattern : 35 ms
[OGL LOG] matrix not stored update host matrix
[OGL LOG] update_host_mtx : 18 ms
[OGL LOG] matrix is not yet sorted, compute sorting idxs
[OGL LOG] compute_sort : 991 ms
[OGL LOG] matrix is not yet sorted, sorting host matrix
[OGL LOG] sort_host_mtx_sparsity_pattern : 23 ms
[OGL LOG] sort_host_mtx : 16 ms
[OGL LOG] init_preconditioner : 0 ms
[OGL LOG] solve : 210 ms
noneompGKOBiCGStab:  Solving for Ux, Initial residual = 1, Final residual = 8.72813e-07, No Iterations 41
[OGL LOG] init_host_sparsity_pattern : 34 ms
[OGL LOG] matrix not stored update host matrix
[OGL LOG] update_host_mtx : 18 ms
[OGL LOG] matrix is not yet sorted, sorting host matrix
[OGL LOG] sort_host_mtx_sparsity_pattern : 23 ms
[OGL LOG] sort_host_mtx : 12 ms
[OGL LOG] init_preconditioner : 0 ms
[OGL LOG] solve : 6 ms
noneompGKOBiCGStab:  Solving for Uy, Initial residual = 0, Final residual = 0, No Iterations 0
[OGL LOG] init_host_sparsity_pattern : 33 ms
[OGL LOG] matrix not stored update host matrix
[OGL LOG] update_host_mtx : 15 ms
[OGL LOG] matrix is not yet sorted, sorting host matrix
[OGL LOG] sort_host_mtx_sparsity_pattern : 23 ms
[OGL LOG] sort_host_mtx : 12 ms
[OGL LOG] init_preconditioner : 0 ms
[OGL LOG] solve : 5 ms
noneompGKOBiCGStab:  Solving for Uz, Initial residual = 0, Final residual = 0, No Iterations 0
[OGL LOG] init_host_sparsity_pattern : 32 ms
[OGL LOG] matrix not stored update host matrix
[OGL LOG] update_host_mtx : 18 ms
[OGL LOG] matrix is not yet sorted, sorting host matrix
[OGL LOG] sort_host_mtx_sparsity_pattern : 22 ms
[OGL LOG] sort_host_mtx : 14 ms
[OGL LOG] init_preconditioner : 0 ms
[OGL LOG] solve : 1814 ms
noneompGKOBiCGStab:  Solving for p, Initial residual = 1, Final residual = 8.43708e-07, No Iterations 349
time step continuity errors : sum local = 7.57515e-09, global = -3.71262e-21, cumulative = -3.71262e-21
[OGL LOG] init_preconditioner : 0 ms
[OGL LOG] solve : 1848 ms
noneompGKOBiCGStab:  Solving for p, Initial residual = 0.721587, Final residual = 9.92108e-07, No Iterations 348
time step continuity errors : sum local = 6.13304e-09, global = 3.80115e-20, cumulative = 3.42989e-20
ExecutionTime = 9.82 s  ClockTime = 6 s

Time = 0.004

Courant Number mean: 0.0720722 max: 0.726639
[OGL LOG] init_host_sparsity_pattern : 32 ms
[OGL LOG] matrix not stored update host matrix
[OGL LOG] update_host_mtx : 16 ms
[OGL LOG] matrix is not yet sorted, sorting host matrix
[OGL LOG] sort_host_mtx_sparsity_pattern : 26 ms
[OGL LOG] sort_host_mtx : 12 ms
[OGL LOG] init_preconditioner : 0 ms
[OGL LOG] solve : 208 ms
noneompGKOBiCGStab:  Solving for Ux, Initial residual = 0.203468, Final residual = 9.3875e-07, No Iterations 39
[OGL LOG] init_host_sparsity_pattern : 33 ms
[OGL LOG] matrix not stored update host matrix
[OGL LOG] update_host_mtx : 15 ms
[OGL LOG] matrix is not yet sorted, sorting host matrix
[OGL LOG] sort_host_mtx_sparsity_pattern : 21 ms
[OGL LOG] sort_host_mtx : 12 ms
[OGL LOG] init_preconditioner : 0 ms
[OGL LOG] solve : 212 ms
noneompGKOBiCGStab:  Solving for Uy, Initial residual = 0.618428, Final residual = 5.82476e-07, No Iterations 40
[OGL LOG] init_host_sparsity_pattern : 33 ms
[OGL LOG] matrix not stored update host matrix
[OGL LOG] update_host_mtx : 15 ms
[OGL LOG] matrix is not yet sorted, sorting host matrix
[OGL LOG] sort_host_mtx_sparsity_pattern : 21 ms
[OGL LOG] sort_host_mtx : 12 ms
[OGL LOG] init_preconditioner : 0 ms
[OGL LOG] solve : 211 ms
noneompGKOBiCGStab:  Solving for Uz, Initial residual = 0.536422, Final residual = 5.16444e-07, No Iterations 40
[OGL LOG] init_preconditioner : 0 ms
[OGL LOG] solve : 1836 ms
noneompGKOBiCGStab:  Solving for p, Initial residual = 0.673317, Final residual = 3.79578e-07, No Iterations 344
time step continuity errors : sum local = 6.72026e-08, global = 1.79548e-20, cumulative = 5.22537e-20
[OGL LOG] init_preconditioner : 0 ms
[OGL LOG] solve : 1841 ms
noneompGKOBiCGStab:  Solving for p, Initial residual = 0.598895, Final residual = 9.10567e-07, No Iterations 345
time step continuity errors : sum local = 8.38178e-09, global = -3.2451e-20, cumulative = 1.98027e-20
ExecutionTime = 18.83 s  ClockTime = 11 s

Time = 0.006

Courant Number mean: 0.107408 max: 0.881755
[OGL LOG] init_host_sparsity_pattern : 32 ms
[OGL LOG] matrix not stored update host matrix
[OGL LOG] update_host_mtx : 15 ms
[OGL LOG] matrix is not yet sorted, sorting host matrix
[OGL LOG] sort_host_mtx_sparsity_pattern : 21 ms
[OGL LOG] sort_host_mtx : 12 ms
[OGL LOG] init_preconditioner : 0 ms
[OGL LOG] solve : 188 ms
noneompGKOBiCGStab:  Solving for Ux, Initial residual = 0.0995828, Final residual = 8.11586e-07, No Iterations 35
[OGL LOG] init_host_sparsity_pattern : 33 ms
[OGL LOG] matrix not stored update host matrix
[OGL LOG] update_host_mtx : 15 ms
[OGL LOG] matrix is not yet sorted, sorting host matrix
[OGL LOG] sort_host_mtx_sparsity_pattern : 21 ms
[OGL LOG] sort_host_mtx : 12 ms
[OGL LOG] init_preconditioner : 0 ms
[OGL LOG] solve : 189 ms
noneompGKOBiCGStab:  Solving for Uy, Initial residual = 0.24993, Final residual = 6.32673e-07, No Iterations 36
[OGL LOG] init_host_sparsity_pattern : 33 ms
[OGL LOG] matrix not stored update host matrix
[OGL LOG] update_host_mtx : 15 ms
[OGL LOG] matrix is not yet sorted, sorting host matrix
[OGL LOG] sort_host_mtx_sparsity_pattern : 21 ms
[OGL LOG] sort_host_mtx : 12 ms
[OGL LOG] init_preconditioner : 0 ms
[OGL LOG] solve : 217 ms
noneompGKOBiCGStab:  Solving for Uz, Initial residual = 0.541859, Final residual = 3.48536e-07, No Iterations 41
[OGL LOG] init_preconditioner : 0 ms
[OGL LOG] solve : 1831 ms
noneompGKOBiCGStab:  Solving for p, Initial residual = 0.6069, Final residual = 4.11484e-07, No Iterations 342
time step continuity errors : sum local = 2.07077e-07, global = -5.21714e-20, cumulative = -3.23687e-20
[OGL LOG] init_preconditioner : 0 ms
[OGL LOG] solve : 1981 ms
noneompGKOBiCGStab:  Solving for p, Initial residual = 0.560899, Final residual = 5.48512e-07, No Iterations 372
time step continuity errors : sum local = 1.74883e-07, global = -8.08952e-20, cumulative = -1.13264e-19
ExecutionTime = 28.03 s  ClockTime = 15 s

Time = 0.008

Courant Number mean: 0.123244 max: 0.890102
[OGL LOG] init_host_sparsity_pattern : 33 ms
[OGL LOG] matrix not stored update host matrix
[OGL LOG] update_host_mtx : 16 ms
[OGL LOG] matrix is not yet sorted, sorting host matrix
[OGL LOG] sort_host_mtx_sparsity_pattern : 24 ms
[OGL LOG] sort_host_mtx : 12 ms
[OGL LOG] init_preconditioner : 0 ms
[OGL LOG] solve : 172 ms
noneompGKOBiCGStab:  Solving for Ux, Initial residual = 0.0341636, Final residual = 8.3861e-07, No Iterations 31
[OGL LOG] init_host_sparsity_pattern : 32 ms
[OGL LOG] matrix not stored update host matrix
[OGL LOG] update_host_mtx : 15 ms
[OGL LOG] matrix is not yet sorted, sorting host matrix
[OGL LOG] sort_host_mtx_sparsity_pattern : 21 ms
[OGL LOG] sort_host_mtx : 12 ms
[OGL LOG] init_preconditioner : 0 ms
[OGL LOG] solve : 200 ms
noneompGKOBiCGStab:  Solving for Uy, Initial residual = 0.132387, Final residual = 9.27543e-07, No Iterations 36
[OGL LOG] init_host_sparsity_pattern : 33 ms
[OGL LOG] matrix not stored update host matrix
[OGL LOG] update_host_mtx : 15 ms
[OGL LOG] matrix is not yet sorted, sorting host matrix
[OGL LOG] sort_host_mtx_sparsity_pattern : 21 ms
[OGL LOG] sort_host_mtx : 12 ms
[OGL LOG] init_preconditioner : 0 ms
[OGL LOG] solve : 214 ms
noneompGKOBiCGStab:  Solving for Uz, Initial residual = 0.474275, Final residual = 8.42294e-07, No Iterations 39
[OGL LOG] init_preconditioner : 0 ms
[OGL LOG] solve : 1898 ms
noneompGKOBiCGStab:  Solving for p, Initial residual = 0.423209, Final residual = 6.88151e-07, No Iterations 355
time step continuity errors : sum local = 1.39111e-08, global = -2.07924e-20, cumulative = -1.34056e-19
[OGL LOG] init_preconditioner : 0 ms
[OGL LOG] solve : 1912 ms
noneompGKOBiCGStab:  Solving for p, Initial residual = 0.368523, Final residual = 9.35104e-07, No Iterations 359
time step continuity errors : sum local = 4.82078e-08, global = 1.0249e-20, cumulative = -1.23807e-19
ExecutionTime = 37.21 s  ClockTime = 20 s

Time = 0.01

Courant Number mean: 0.136097 max: 0.906946
[OGL LOG] init_host_sparsity_pattern : 32 ms
[OGL LOG] matrix not stored update host matrix
[OGL LOG] update_host_mtx : 15 ms
[OGL LOG] matrix is not yet sorted, sorting host matrix
[OGL LOG] sort_host_mtx_sparsity_pattern : 21 ms
[OGL LOG] sort_host_mtx : 12 ms
[OGL LOG] init_preconditioner : 0 ms
[OGL LOG] solve : 166 ms
noneompGKOBiCGStab:  Solving for Ux, Initial residual = 0.023064, Final residual = 7.70954e-07, No Iterations 30
[OGL LOG] init_host_sparsity_pattern : 33 ms
[OGL LOG] matrix not stored update host matrix
[OGL LOG] update_host_mtx : 15 ms
[OGL LOG] matrix is not yet sorted, sorting host matrix
[OGL LOG] sort_host_mtx_sparsity_pattern : 21 ms
[OGL LOG] sort_host_mtx : 12 ms
[OGL LOG] init_preconditioner : 0 ms
[OGL LOG] solve : 177 ms
noneompGKOBiCGStab:  Solving for Uy, Initial residual = 0.0485419, Final residual = 8.1028e-07, No Iterations 32
[OGL LOG] init_host_sparsity_pattern : 32 ms
[OGL LOG] matrix not stored update host matrix
[OGL LOG] update_host_mtx : 15 ms
[OGL LOG] matrix is not yet sorted, sorting host matrix
[OGL LOG] sort_host_mtx_sparsity_pattern : 21 ms
[OGL LOG] sort_host_mtx : 12 ms
[OGL LOG] init_preconditioner : 0 ms
[OGL LOG] solve : 189 ms
noneompGKOBiCGStab:  Solving for Uz, Initial residual = 0.161751, Final residual = 8.88247e-07, No Iterations 34
[OGL LOG] init_preconditioner : 0 ms
[OGL LOG] solve : 1746 ms
noneompGKOBiCGStab:  Solving for p, Initial residual = 0.361717, Final residual = 9.3777e-07, No Iterations 328
time step continuity errors : sum local = 3.85392e-09, global = -1.87621e-20, cumulative = -1.42569e-19
[OGL LOG] init_preconditioner : 0 ms
[OGL LOG] solve : 1745 ms
noneompGKOBiCGStab:  Solving for p, Initial residual = 0.333127, Final residual = 9.12316e-07, No Iterations 327
time step continuity errors : sum local = 6.51817e-09, global = 2.12713e-20, cumulative = -1.21298e-19
ExecutionTime = 45.64 s  ClockTime = 25 s

End

