/*---------------------------------------------------------------------------*\
  =========                 |
  \\      /  F ield         | OpenFOAM: The Open Source CFD Toolbox
   \\    /   O peration     | Website:  https://openfoam.org
    \\  /    A nd           | Version:  8
     \\/     M anipulation  |
\*---------------------------------------------------------------------------*/
Build  : 8-13d66902f78c
Exec   : icoFoam
Date   : Jul 04 2021
Time   : 09:42:17
Host   : "uc2n420.localdomain"
PID    : 1129257
I/O    : uncollated
Case   : /pfs/data5/home/kit/scc/nq7776/code/OGL_DATA/lidDrivenCavity3D/v0.1-136-g40fef35/f584ccac99/IntelXeonGold6230CPU@2.10GHz/Test_2021-07-04-07:18:41/100/p-BiCGStab-GKO-none-omp/lidDrivenCavity3D
nProcs : 1
sigFpe : Enabling floating point exception trapping (FOAM_SIGFPE).
fileModificationChecking : Monitoring run-time modified files using timeStampMaster (fileModificationSkew 10)
allowSystemOperations : Allowing user-supplied system call operations

// * * * * * * * * * * * * * * * * * * * * * * * * * * * * * * * * * * * * * //
Create time

Create mesh for time = 0

Reading transportProperties

Reading field p

Reading field U

Reading/calculating face flux field phi


Starting time loop

Time = 0.001

Courant Number mean: 0 max: 0
nonePBiCGStab:  Solving for Ux, Initial residual = 1, Final residual = 0.0818707, No Iterations 5
nonePBiCGStab:  Solving for Uy, Initial residual = 0, Final residual = 0, No Iterations 0
nonePBiCGStab:  Solving for Uz, Initial residual = 0, Final residual = 0, No Iterations 0
[OGL LOG] init_host_sparsity_pattern : 288 ms
[OGL LOG] matrix not stored update host matrix
[OGL LOG] update_host_mtx : 148 ms
[OGL LOG] matrix is not yet sorted, compute sorting idxs
[OGL LOG] compute_sort : 9152 ms
[OGL LOG] matrix is not yet sorted, sorting host matrix
[OGL LOG] sort_host_mtx_sparsity_pattern : 200 ms
[OGL LOG] sort_host_mtx : 125 ms
[OGL LOG] init_preconditioner : 0 ms
[OGL LOG] solve : 20701 ms
noneompGKOBiCGStab:  Solving for p, Initial residual = 1, Final residual = 6.25113e-07, No Iterations 713
time step continuity errors : sum local = 4.73137e-10, global = -2.28128e-20, cumulative = -2.28128e-20
[OGL LOG] init_preconditioner : 0 ms
[OGL LOG] solve : 19769 ms
noneompGKOBiCGStab:  Solving for p, Initial residual = 0.707487, Final residual = 6.43864e-07, No Iterations 679
time step continuity errors : sum local = 5.75713e-09, global = -1.87939e-21, cumulative = -2.46922e-20
ExecutionTime = 176.12 s  ClockTime = 56 s

Time = 0.002

Courant Number mean: 0.0422155 max: 0.791725
nonePBiCGStab:  Solving for Ux, Initial residual = 0.137872, Final residual = 0.0400113, No Iterations 5
nonePBiCGStab:  Solving for Uy, Initial residual = 0.451742, Final residual = 0.130143, No Iterations 5
nonePBiCGStab:  Solving for Uz, Initial residual = 0.987376, Final residual = 0.323481, No Iterations 5
[OGL LOG] init_preconditioner : 0 ms
[OGL LOG] solve : 20533 ms
noneompGKOBiCGStab:  Solving for p, Initial residual = 0.789691, Final residual = 8.26752e-07, No Iterations 702
time step continuity errors : sum local = 8.40896e-08, global = 1.67113e-21, cumulative = -2.30211e-20
[OGL LOG] init_preconditioner : 0 ms
[OGL LOG] solve : 22288 ms
noneompGKOBiCGStab:  Solving for p, Initial residual = 0.713547, Final residual = 7.10546e-07, No Iterations 747
time step continuity errors : sum local = 2.3709e-07, global = 2.81499e-21, cumulative = -2.02061e-20
ExecutionTime = 348.39 s  ClockTime = 100 s

Time = 0.003

Courant Number mean: 0.0674677 max: 0.89998
nonePBiCGStab:  Solving for Ux, Initial residual = 0.0611183, Final residual = 0.0153285, No Iterations 5
nonePBiCGStab:  Solving for Uy, Initial residual = 0.208624, Final residual = 0.0593105, No Iterations 5
nonePBiCGStab:  Solving for Uz, Initial residual = 0.713756, Final residual = 0.21774, No Iterations 5
[OGL LOG] init_preconditioner : 0 ms
[OGL LOG] solve : 20840 ms
noneompGKOBiCGStab:  Solving for p, Initial residual = 0.796976, Final residual = 9.90093e-07, No Iterations 709
time step continuity errors : sum local = 4.63996e-09, global = 1.71683e-21, cumulative = -1.84893e-20
[OGL LOG] init_preconditioner : 0 ms
[OGL LOG] solve : 22014 ms
noneompGKOBiCGStab:  Solving for p, Initial residual = 0.724741, Final residual = 4.10228e-07, No Iterations 743
time step continuity errors : sum local = 5.05484e-08, global = -9.00717e-22, cumulative = -1.939e-20
ExecutionTime = 520.6 s  ClockTime = 144 s

Time = 0.004

Courant Number mean: 0.0814764 max: 0.912895
nonePBiCGStab:  Solving for Ux, Initial residual = 0.0387998, Final residual = 0.0107219, No Iterations 5
nonePBiCGStab:  Solving for Uy, Initial residual = 0.149073, Final residual = 0.0502808, No Iterations 5
nonePBiCGStab:  Solving for Uz, Initial residual = 0.49463, Final residual = 0.135706, No Iterations 5
[OGL LOG] init_preconditioner : 0 ms
[OGL LOG] solve : 22058 ms
noneompGKOBiCGStab:  Solving for p, Initial residual = 0.719526, Final residual = 7.1936e-07, No Iterations 742
time step continuity errors : sum local = 1.98208e-08, global = 6.91347e-22, cumulative = -1.86987e-20
[OGL LOG] init_preconditioner : 0 ms
[OGL LOG] solve : 21112 ms
noneompGKOBiCGStab:  Solving for p, Initial residual = 0.619802, Final residual = 8.38513e-07, No Iterations 727
time step continuity errors : sum local = 2.98966e-08, global = 7.8073e-21, cumulative = -1.08914e-20
ExecutionTime = 694.46 s  ClockTime = 189 s

Time = 0.005

Courant Number mean: 0.0922795 max: 0.925557
nonePBiCGStab:  Solving for Ux, Initial residual = 0.02984, Final residual = 0.00896854, No Iterations 5
nonePBiCGStab:  Solving for Uy, Initial residual = 0.0986852, Final residual = 0.0358116, No Iterations 5
nonePBiCGStab:  Solving for Uz, Initial residual = 0.308032, Final residual = 0.0797695, No Iterations 5
[OGL LOG] init_preconditioner : 0 ms
[OGL LOG] solve : 20742 ms
noneompGKOBiCGStab:  Solving for p, Initial residual = 0.757172, Final residual = 8.09409e-07, No Iterations 707
time step continuity errors : sum local = 5.61916e-10, global = 1.54181e-21, cumulative = -9.34956e-21
[OGL LOG] init_preconditioner : 0 ms
[OGL LOG] solve : 20652 ms
noneompGKOBiCGStab:  Solving for p, Initial residual = 0.670805, Final residual = 8.49427e-07, No Iterations 708
time step continuity errors : sum local = 1.75749e-07, global = -5.01162e-21, cumulative = -1.43612e-20
ExecutionTime = 860.98 s  ClockTime = 232 s

End

