/*---------------------------------------------------------------------------*\
  =========                 |
  \\      /  F ield         | OpenFOAM: The Open Source CFD Toolbox
   \\    /   O peration     | Website:  https://openfoam.org
    \\  /    A nd           | Version:  8
     \\/     M anipulation  |
\*---------------------------------------------------------------------------*/
Build  : 8-13d66902f78c
Exec   : icoFoam
Date   : Jul 04 2021
Time   : 09:18:08
Host   : "uc2n384.localdomain"
PID    : 2628321
I/O    : uncollated
Case   : /pfs/data5/home/kit/scc/nq7776/code/OGL_DATA/lidDrivenCavity3D/v0.1-136-g40fef35/f584ccac99/IntelXeonGold6230CPU@2.10GHz/Test_2021-07-04-08:57:08/50/p-U-CG-GKO-BJ-omp/lidDrivenCavity3D
nProcs : 1
sigFpe : Enabling floating point exception trapping (FOAM_SIGFPE).
fileModificationChecking : Monitoring run-time modified files using timeStampMaster (fileModificationSkew 10)
allowSystemOperations : Allowing user-supplied system call operations

// * * * * * * * * * * * * * * * * * * * * * * * * * * * * * * * * * * * * * //
Create time

Create mesh for time = 0

Reading transportProperties

Reading field p

Reading field U

Reading/calculating face flux field phi


Starting time loop

Time = 0.002

Courant Number mean: 0 max: 0
[OGL LOG] init_host_sparsity_pattern : 35 ms
[OGL LOG] matrix not stored update host matrix
[OGL LOG] update_host_mtx : 18 ms
[OGL LOG] matrix is not yet sorted, compute sorting idxs
[OGL LOG] compute_sort : 988 ms
[OGL LOG] matrix is not yet sorted, sorting host matrix
[OGL LOG] sort_host_mtx_sparsity_pattern : 23 ms
[OGL LOG] sort_host_mtx : 15 ms
[OGL LOG] init_preconditioner : 8 ms
[OGL LOG] solve : 134 ms
BJompGKOBiCGStab:  Solving for Ux, Initial residual = 1, Final residual = 8.40984e-07, No Iterations 31
[OGL LOG] init_host_sparsity_pattern : 35 ms
[OGL LOG] matrix not stored update host matrix
[OGL LOG] update_host_mtx : 18 ms
[OGL LOG] matrix is not yet sorted, sorting host matrix
[OGL LOG] sort_host_mtx_sparsity_pattern : 23 ms
[OGL LOG] sort_host_mtx : 12 ms
[OGL LOG] init_preconditioner : 2 ms
[OGL LOG] solve : 5 ms
BJompGKOBiCGStab:  Solving for Uy, Initial residual = 0, Final residual = 0, No Iterations 0
[OGL LOG] init_host_sparsity_pattern : 34 ms
[OGL LOG] matrix not stored update host matrix
[OGL LOG] update_host_mtx : 15 ms
[OGL LOG] matrix is not yet sorted, sorting host matrix
[OGL LOG] sort_host_mtx_sparsity_pattern : 23 ms
[OGL LOG] sort_host_mtx : 12 ms
[OGL LOG] init_preconditioner : 3 ms
[OGL LOG] solve : 4 ms
BJompGKOBiCGStab:  Solving for Uz, Initial residual = 0, Final residual = 0, No Iterations 0
[OGL LOG] init_host_sparsity_pattern : 33 ms
[OGL LOG] matrix not stored update host matrix
[OGL LOG] update_host_mtx : 18 ms
[OGL LOG] matrix is not yet sorted, sorting host matrix
[OGL LOG] sort_host_mtx_sparsity_pattern : 22 ms
[OGL LOG] sort_host_mtx : 14 ms
[OGL LOG] init_preconditioner : 2 ms
 CG create  precond 
[OGL LOG] solve : 914 ms
BJompGKOCG:  Solving for p, Initial residual = 1, Final residual = 9.57569e-07, No Iterations 404
time step continuity errors : sum local = 1.57675e-09, global = 3.25892e-21, cumulative = 3.25892e-21
[OGL LOG] init_preconditioner : 0 ms
 CG create  precond 
[OGL LOG] solve : 863 ms
BJompGKOCG:  Solving for p, Initial residual = 0.721583, Final residual = 9.47224e-07, No Iterations 385
time step continuity errors : sum local = 2.06792e-09, global = -1.4275e-20, cumulative = -1.10161e-20
ExecutionTime = 128.69 s  ClockTime = 4 s

Time = 0.004

Courant Number mean: 0.0720722 max: 0.726639
[OGL LOG] init_host_sparsity_pattern : 33 ms
[OGL LOG] matrix not stored update host matrix
[OGL LOG] update_host_mtx : 17 ms
[OGL LOG] matrix is not yet sorted, sorting host matrix
[OGL LOG] sort_host_mtx_sparsity_pattern : 26 ms
[OGL LOG] sort_host_mtx : 15 ms
[OGL LOG] init_preconditioner : 0 ms
[OGL LOG] solve : 107 ms
BJompGKOBiCGStab:  Solving for Ux, Initial residual = 0.203465, Final residual = 5.55771e-07, No Iterations 23
[OGL LOG] init_host_sparsity_pattern : 34 ms
[OGL LOG] matrix not stored update host matrix
[OGL LOG] update_host_mtx : 15 ms
[OGL LOG] matrix is not yet sorted, sorting host matrix
[OGL LOG] sort_host_mtx_sparsity_pattern : 22 ms
[OGL LOG] sort_host_mtx : 12 ms
[OGL LOG] init_preconditioner : 0 ms
[OGL LOG] solve : 144 ms
BJompGKOBiCGStab:  Solving for Uy, Initial residual = 0.618431, Final residual = 9.28282e-07, No Iterations 32
[OGL LOG] init_host_sparsity_pattern : 34 ms
[OGL LOG] matrix not stored update host matrix
[OGL LOG] update_host_mtx : 15 ms
[OGL LOG] matrix is not yet sorted, sorting host matrix
[OGL LOG] sort_host_mtx_sparsity_pattern : 22 ms
[OGL LOG] sort_host_mtx : 12 ms
[OGL LOG] init_preconditioner : 0 ms
[OGL LOG] solve : 140 ms
BJompGKOBiCGStab:  Solving for Uz, Initial residual = 0.536268, Final residual = 9.90168e-07, No Iterations 31
[OGL LOG] init_preconditioner : 0 ms
 CG create  precond 
[OGL LOG] solve : 836 ms
BJompGKOCG:  Solving for p, Initial residual = 0.673319, Final residual = 9.36062e-07, No Iterations 377
time step continuity errors : sum local = 2.21985e-09, global = 3.69268e-21, cumulative = -7.3234e-21
[OGL LOG] init_preconditioner : 0 ms
 CG create  precond 
[OGL LOG] solve : 835 ms
BJompGKOCG:  Solving for p, Initial residual = 0.598888, Final residual = 9.48279e-07, No Iterations 376
time step continuity errors : sum local = 2.30809e-09, global = 8.08506e-21, cumulative = 7.61652e-22
ExecutionTime = 263.16 s  ClockTime = 6 s

Time = 0.006

Courant Number mean: 0.107408 max: 0.881754
[OGL LOG] init_host_sparsity_pattern : 33 ms
[OGL LOG] matrix not stored update host matrix
[OGL LOG] update_host_mtx : 16 ms
[OGL LOG] matrix is not yet sorted, sorting host matrix
[OGL LOG] sort_host_mtx_sparsity_pattern : 23 ms
[OGL LOG] sort_host_mtx : 13 ms
[OGL LOG] init_preconditioner : 0 ms
[OGL LOG] solve : 96 ms
BJompGKOBiCGStab:  Solving for Ux, Initial residual = 0.0995685, Final residual = 7.01793e-07, No Iterations 21
[OGL LOG] init_host_sparsity_pattern : 34 ms
[OGL LOG] matrix not stored update host matrix
[OGL LOG] update_host_mtx : 15 ms
[OGL LOG] matrix is not yet sorted, sorting host matrix
[OGL LOG] sort_host_mtx_sparsity_pattern : 22 ms
[OGL LOG] sort_host_mtx : 12 ms
[OGL LOG] init_preconditioner : 0 ms
[OGL LOG] solve : 132 ms
BJompGKOBiCGStab:  Solving for Uy, Initial residual = 0.249969, Final residual = 8.21643e-07, No Iterations 29
[OGL LOG] init_host_sparsity_pattern : 35 ms
[OGL LOG] matrix not stored update host matrix
[OGL LOG] update_host_mtx : 15 ms
[OGL LOG] matrix is not yet sorted, sorting host matrix
[OGL LOG] sort_host_mtx_sparsity_pattern : 23 ms
[OGL LOG] sort_host_mtx : 12 ms
[OGL LOG] init_preconditioner : 0 ms
[OGL LOG] solve : 145 ms
BJompGKOBiCGStab:  Solving for Uz, Initial residual = 0.540949, Final residual = 8.8963e-07, No Iterations 32
[OGL LOG] init_preconditioner : 0 ms
 CG create  precond 
[OGL LOG] solve : 899 ms
BJompGKOCG:  Solving for p, Initial residual = 0.60689, Final residual = 9.38926e-07, No Iterations 408
time step continuity errors : sum local = 1.59881e-09, global = 3.19032e-20, cumulative = 3.26648e-20
[OGL LOG] init_preconditioner : 0 ms
 CG create  precond 
[OGL LOG] solve : 890 ms
BJompGKOCG:  Solving for p, Initial residual = 0.560846, Final residual = 9.19105e-07, No Iterations 407
time step continuity errors : sum local = 1.51283e-09, global = -2.08502e-20, cumulative = 1.18146e-20
ExecutionTime = 403.99 s  ClockTime = 9 s

Time = 0.008

Courant Number mean: 0.123244 max: 0.890102
[OGL LOG] init_host_sparsity_pattern : 33 ms
[OGL LOG] matrix not stored update host matrix
[OGL LOG] update_host_mtx : 15 ms
[OGL LOG] matrix is not yet sorted, sorting host matrix
[OGL LOG] sort_host_mtx_sparsity_pattern : 22 ms
[OGL LOG] sort_host_mtx : 12 ms
[OGL LOG] init_preconditioner : 0 ms
[OGL LOG] solve : 109 ms
BJompGKOBiCGStab:  Solving for Ux, Initial residual = 0.0341421, Final residual = 7.88557e-07, No Iterations 25
[OGL LOG] init_host_sparsity_pattern : 34 ms
[OGL LOG] matrix not stored update host matrix
[OGL LOG] update_host_mtx : 15 ms
[OGL LOG] matrix is not yet sorted, sorting host matrix
[OGL LOG] sort_host_mtx_sparsity_pattern : 22 ms
[OGL LOG] sort_host_mtx : 12 ms
[OGL LOG] init_preconditioner : 0 ms
[OGL LOG] solve : 122 ms
BJompGKOBiCGStab:  Solving for Uy, Initial residual = 0.13238, Final residual = 8.14354e-07, No Iterations 28
[OGL LOG] init_host_sparsity_pattern : 34 ms
[OGL LOG] matrix not stored update host matrix
[OGL LOG] update_host_mtx : 15 ms
[OGL LOG] matrix is not yet sorted, sorting host matrix
[OGL LOG] sort_host_mtx_sparsity_pattern : 22 ms
[OGL LOG] sort_host_mtx : 12 ms
[OGL LOG] init_preconditioner : 0 ms
[OGL LOG] solve : 134 ms
BJompGKOBiCGStab:  Solving for Uz, Initial residual = 0.47195, Final residual = 9.31777e-07, No Iterations 31
[OGL LOG] init_preconditioner : 0 ms
 CG create  precond 
[OGL LOG] solve : 887 ms
BJompGKOCG:  Solving for p, Initial residual = 0.42304, Final residual = 9.07284e-07, No Iterations 403
time step continuity errors : sum local = 1.43249e-09, global = 3.33497e-20, cumulative = 4.51643e-20
[OGL LOG] init_preconditioner : 0 ms
 CG create  precond 
[OGL LOG] solve : 891 ms
BJompGKOCG:  Solving for p, Initial residual = 0.368379, Final residual = 9.22106e-07, No Iterations 402
time step continuity errors : sum local = 1.47704e-09, global = 3.36332e-20, cumulative = 7.87974e-20
ExecutionTime = 543.64 s  ClockTime = 12 s

Time = 0.01

Courant Number mean: 0.136096 max: 0.906942
[OGL LOG] init_host_sparsity_pattern : 33 ms
[OGL LOG] matrix not stored update host matrix
[OGL LOG] update_host_mtx : 18 ms
[OGL LOG] matrix is not yet sorted, sorting host matrix
[OGL LOG] sort_host_mtx_sparsity_pattern : 23 ms
[OGL LOG] sort_host_mtx : 13 ms
[OGL LOG] init_preconditioner : 0 ms
[OGL LOG] solve : 111 ms
BJompGKOBiCGStab:  Solving for Ux, Initial residual = 0.0230738, Final residual = 7.32572e-07, No Iterations 24
[OGL LOG] init_host_sparsity_pattern : 35 ms
[OGL LOG] matrix not stored update host matrix
[OGL LOG] update_host_mtx : 15 ms
[OGL LOG] matrix is not yet sorted, sorting host matrix
[OGL LOG] sort_host_mtx_sparsity_pattern : 23 ms
[OGL LOG] sort_host_mtx : 12 ms
[OGL LOG] init_preconditioner : 0 ms
[OGL LOG] solve : 116 ms
BJompGKOBiCGStab:  Solving for Uy, Initial residual = 0.0484117, Final residual = 9.76222e-07, No Iterations 25
[OGL LOG] init_host_sparsity_pattern : 34 ms
[OGL LOG] matrix not stored update host matrix
[OGL LOG] update_host_mtx : 15 ms
[OGL LOG] matrix is not yet sorted, sorting host matrix
[OGL LOG] sort_host_mtx_sparsity_pattern : 22 ms
[OGL LOG] sort_host_mtx : 12 ms
[OGL LOG] init_preconditioner : 0 ms
[OGL LOG] solve : 130 ms
BJompGKOBiCGStab:  Solving for Uz, Initial residual = 0.159037, Final residual = 8.50237e-07, No Iterations 28
[OGL LOG] init_preconditioner : 0 ms
 CG create  precond 
[OGL LOG] solve : 831 ms
BJompGKOCG:  Solving for p, Initial residual = 0.361668, Final residual = 9.8715e-07, No Iterations 381
time step continuity errors : sum local = 1.34865e-09, global = 6.90119e-21, cumulative = 8.56986e-20
[OGL LOG] init_preconditioner : 0 ms
 CG create  precond 
[OGL LOG] solve : 806 ms
BJompGKOCG:  Solving for p, Initial residual = 0.333162, Final residual = 9.57799e-07, No Iterations 380
time step continuity errors : sum local = 1.29683e-09, global = 3.34194e-21, cumulative = 8.90406e-20
ExecutionTime = 673.73 s  ClockTime = 14 s

End

