/*---------------------------------------------------------------------------*\
  =========                 |
  \\      /  F ield         | OpenFOAM: The Open Source CFD Toolbox
   \\    /   O peration     | Website:  https://openfoam.org
    \\  /    A nd           | Version:  8
     \\/     M anipulation  |
\*---------------------------------------------------------------------------*/
Build  : 8-13d66902f78c
Exec   : icoFoam
Date   : Jul 04 2021
Time   : 11:20:58
Host   : "uc2n423.localdomain"
PID    : 2492132
I/O    : uncollated
Case   : /pfs/data5/home/kit/scc/nq7776/code/OGL_DATA/lidDrivenCavity3D/v0.1-136-g40fef35/f584ccac99/IntelXeonGold6230CPU@2.10GHz/Test_2021-07-04-08:58:23/100/p-U-BiCGStab-GKO-BJ-omp/lidDrivenCavity3D
nProcs : 1
sigFpe : Enabling floating point exception trapping (FOAM_SIGFPE).
fileModificationChecking : Monitoring run-time modified files using timeStampMaster (fileModificationSkew 10)
allowSystemOperations : Allowing user-supplied system call operations

// * * * * * * * * * * * * * * * * * * * * * * * * * * * * * * * * * * * * * //
Create time

Create mesh for time = 0

Reading transportProperties

Reading field p

Reading field U

Reading/calculating face flux field phi


Starting time loop

Time = 0.001

Courant Number mean: 0 max: 0
[OGL LOG] init_host_sparsity_pattern : 290 ms
[OGL LOG] matrix not stored update host matrix
[OGL LOG] update_host_mtx : 146 ms
[OGL LOG] matrix is not yet sorted, compute sorting idxs
[OGL LOG] compute_sort : 9073 ms
[OGL LOG] matrix is not yet sorted, sorting host matrix
[OGL LOG] sort_host_mtx_sparsity_pattern : 185 ms
[OGL LOG] sort_host_mtx : 126 ms
[OGL LOG] init_preconditioner : 145 ms
[OGL LOG] solve : 4992 ms
BJompGKOBiCGStab:  Solving for Ux, Initial residual = 1, Final residual = 9.73391e-07, No Iterations 47
[OGL LOG] init_host_sparsity_pattern : 288 ms
[OGL LOG] matrix not stored update host matrix
[OGL LOG] update_host_mtx : 155 ms
[OGL LOG] matrix is not yet sorted, sorting host matrix
[OGL LOG] sort_host_mtx_sparsity_pattern : 200 ms
[OGL LOG] sort_host_mtx : 148 ms
[OGL LOG] init_preconditioner : 157 ms
[OGL LOG] solve : 97 ms
BJompGKOBiCGStab:  Solving for Uy, Initial residual = 0, Final residual = 0, No Iterations 0
[OGL LOG] init_host_sparsity_pattern : 277 ms
[OGL LOG] matrix not stored update host matrix
[OGL LOG] update_host_mtx : 145 ms
[OGL LOG] matrix is not yet sorted, sorting host matrix
[OGL LOG] sort_host_mtx_sparsity_pattern : 188 ms
[OGL LOG] sort_host_mtx : 124 ms
[OGL LOG] init_preconditioner : 159 ms
[OGL LOG] solve : 95 ms
BJompGKOBiCGStab:  Solving for Uz, Initial residual = 0, Final residual = 0, No Iterations 0
[OGL LOG] init_host_sparsity_pattern : 267 ms
[OGL LOG] matrix not stored update host matrix
[OGL LOG] update_host_mtx : 147 ms
[OGL LOG] matrix is not yet sorted, sorting host matrix
[OGL LOG] sort_host_mtx_sparsity_pattern : 192 ms
[OGL LOG] sort_host_mtx : 124 ms
[OGL LOG] init_preconditioner : 158 ms
[OGL LOG] solve : 53456 ms
BJompGKOBiCGStab:  Solving for p, Initial residual = 1, Final residual = 8.8424e-07, No Iterations 542
time step continuity errors : sum local = 6.82404e-07, global = 4.20053e-21, cumulative = 4.20053e-21
[OGL LOG] init_preconditioner : 0 ms
[OGL LOG] solve : 52940 ms
BJompGKOBiCGStab:  Solving for p, Initial residual = 0.783305, Final residual = 9.15583e-07, No Iterations 542
time step continuity errors : sum local = 1.57588e-07, global = -6.95801e-21, cumulative = -2.75749e-21
ExecutionTime = 240.8 s  ClockTime = 129 s

Time = 0.002

Courant Number mean: 0.0571438 max: 0.804775
[OGL LOG] init_host_sparsity_pattern : 268 ms
[OGL LOG] matrix not stored update host matrix
[OGL LOG] update_host_mtx : 147 ms
[OGL LOG] matrix is not yet sorted, sorting host matrix
[OGL LOG] sort_host_mtx_sparsity_pattern : 187 ms
[OGL LOG] sort_host_mtx : 125 ms
[OGL LOG] init_preconditioner : 0 ms
[OGL LOG] solve : 4008 ms
BJompGKOBiCGStab:  Solving for Ux, Initial residual = 0.168845, Final residual = 5.0761e-07, No Iterations 40
[OGL LOG] init_host_sparsity_pattern : 267 ms
[OGL LOG] matrix not stored update host matrix
[OGL LOG] update_host_mtx : 146 ms
[OGL LOG] matrix is not yet sorted, sorting host matrix
[OGL LOG] sort_host_mtx_sparsity_pattern : 193 ms
[OGL LOG] sort_host_mtx : 125 ms
[OGL LOG] init_preconditioner : 0 ms
[OGL LOG] solve : 4718 ms
BJompGKOBiCGStab:  Solving for Uy, Initial residual = 0.620611, Final residual = 9.73158e-07, No Iterations 47
[OGL LOG] init_host_sparsity_pattern : 278 ms
[OGL LOG] matrix not stored update host matrix
[OGL LOG] update_host_mtx : 146 ms
[OGL LOG] matrix is not yet sorted, sorting host matrix
[OGL LOG] sort_host_mtx_sparsity_pattern : 192 ms
[OGL LOG] sort_host_mtx : 124 ms
[OGL LOG] init_preconditioner : 0 ms
[OGL LOG] solve : 4262 ms
BJompGKOBiCGStab:  Solving for Uz, Initial residual = 0.659355, Final residual = 9.54181e-07, No Iterations 43
[OGL LOG] init_preconditioner : 0 ms
[OGL LOG] solve : 53537 ms
BJompGKOBiCGStab:  Solving for p, Initial residual = 0.798788, Final residual = 7.48832e-07, No Iterations 549
time step continuity errors : sum local = 6.80936e-08, global = 1.09794e-20, cumulative = 8.22187e-21
[OGL LOG] init_preconditioner : 0 ms
[OGL LOG] solve : 51231 ms
BJompGKOBiCGStab:  Solving for p, Initial residual = 0.739767, Final residual = 6.88152e-07, No Iterations 527
time step continuity errors : sum local = 1.3186e-08, global = -2.44389e-21, cumulative = 5.77798e-21
ExecutionTime = 479.3 s  ClockTime = 251 s

Time = 0.003

Courant Number mean: 0.0867607 max: 0.944834
[OGL LOG] init_host_sparsity_pattern : 268 ms
[OGL LOG] matrix not stored update host matrix
[OGL LOG] update_host_mtx : 146 ms
[OGL LOG] matrix is not yet sorted, sorting host matrix
[OGL LOG] sort_host_mtx_sparsity_pattern : 187 ms
[OGL LOG] sort_host_mtx : 125 ms
[OGL LOG] init_preconditioner : 0 ms
[OGL LOG] solve : 4157 ms
BJompGKOBiCGStab:  Solving for Ux, Initial residual = 0.10242, Final residual = 8.95909e-07, No Iterations 42
[OGL LOG] init_host_sparsity_pattern : 268 ms
[OGL LOG] matrix not stored update host matrix
[OGL LOG] update_host_mtx : 146 ms
[OGL LOG] matrix is not yet sorted, sorting host matrix
[OGL LOG] sort_host_mtx_sparsity_pattern : 193 ms
[OGL LOG] sort_host_mtx : 126 ms
[OGL LOG] init_preconditioner : 0 ms
[OGL LOG] solve : 4122 ms
BJompGKOBiCGStab:  Solving for Uy, Initial residual = 0.399134, Final residual = 9.09285e-07, No Iterations 41
[OGL LOG] init_host_sparsity_pattern : 267 ms
[OGL LOG] matrix not stored update host matrix
[OGL LOG] update_host_mtx : 146 ms
[OGL LOG] matrix is not yet sorted, sorting host matrix
[OGL LOG] sort_host_mtx_sparsity_pattern : 193 ms
[OGL LOG] sort_host_mtx : 125 ms
[OGL LOG] init_preconditioner : 0 ms
[OGL LOG] solve : 4689 ms
BJompGKOBiCGStab:  Solving for Uz, Initial residual = 1.01172, Final residual = 7.81111e-07, No Iterations 47
[OGL LOG] init_preconditioner : 0 ms
[OGL LOG] solve : 54971 ms
BJompGKOBiCGStab:  Solving for p, Initial residual = 0.832915, Final residual = 8.82774e-07, No Iterations 564
time step continuity errors : sum local = 3.22643e-09, global = -5.13353e-23, cumulative = 5.72665e-21
[OGL LOG] init_preconditioner : 0 ms
[OGL LOG] solve : 53779 ms
BJompGKOBiCGStab:  Solving for p, Initial residual = 0.802678, Final residual = 9.95696e-07, No Iterations 554
time step continuity errors : sum local = 1.76354e-09, global = -9.47418e-21, cumulative = -3.74753e-21
ExecutionTime = 725.64 s  ClockTime = 376 s

Time = 0.004

Courant Number mean: 0.0995355 max: 0.926372
[OGL LOG] init_host_sparsity_pattern : 268 ms
[OGL LOG] matrix not stored update host matrix
[OGL LOG] update_host_mtx : 145 ms
[OGL LOG] matrix is not yet sorted, sorting host matrix
[OGL LOG] sort_host_mtx_sparsity_pattern : 187 ms
[OGL LOG] sort_host_mtx : 125 ms
[OGL LOG] init_preconditioner : 0 ms
[OGL LOG] solve : 4106 ms
BJompGKOBiCGStab:  Solving for Ux, Initial residual = 0.0541919, Final residual = 4.5029e-07, No Iterations 41
[OGL LOG] init_host_sparsity_pattern : 267 ms
[OGL LOG] matrix not stored update host matrix
[OGL LOG] update_host_mtx : 146 ms
[OGL LOG] matrix is not yet sorted, sorting host matrix
[OGL LOG] sort_host_mtx_sparsity_pattern : 193 ms
[OGL LOG] sort_host_mtx : 126 ms
[OGL LOG] init_preconditioner : 0 ms
[OGL LOG] solve : 4009 ms
BJompGKOBiCGStab:  Solving for Uy, Initial residual = 0.255751, Final residual = 7.63295e-07, No Iterations 40
[OGL LOG] init_host_sparsity_pattern : 267 ms
[OGL LOG] matrix not stored update host matrix
[OGL LOG] update_host_mtx : 146 ms
[OGL LOG] matrix is not yet sorted, sorting host matrix
[OGL LOG] sort_host_mtx_sparsity_pattern : 192 ms
[OGL LOG] sort_host_mtx : 125 ms
[OGL LOG] init_preconditioner : 0 ms
[OGL LOG] solve : 4258 ms
BJompGKOBiCGStab:  Solving for Uz, Initial residual = 0.882587, Final residual = 4.89552e-07, No Iterations 43
[OGL LOG] init_preconditioner : 0 ms
[OGL LOG] solve : 53488 ms
BJompGKOBiCGStab:  Solving for p, Initial residual = 0.750512, Final residual = 3.79933e-07, No Iterations 549
time step continuity errors : sum local = 3.3299e-09, global = 5.28129e-21, cumulative = 1.53376e-21
[OGL LOG] init_preconditioner : 0 ms
[OGL LOG] solve : 52340 ms
BJompGKOBiCGStab:  Solving for p, Initial residual = 0.685291, Final residual = 9.55978e-07, No Iterations 539
time step continuity errors : sum local = 1.72192e-09, global = -1.40538e-20, cumulative = -1.252e-20
ExecutionTime = 964.97 s  ClockTime = 498 s

Time = 0.005

Courant Number mean: 0.112169 max: 0.946348
[OGL LOG] init_host_sparsity_pattern : 267 ms
[OGL LOG] matrix not stored update host matrix
[OGL LOG] update_host_mtx : 145 ms
[OGL LOG] matrix is not yet sorted, sorting host matrix
[OGL LOG] sort_host_mtx_sparsity_pattern : 187 ms
[OGL LOG] sort_host_mtx : 124 ms
[OGL LOG] init_preconditioner : 0 ms
[OGL LOG] solve : 3627 ms
BJompGKOBiCGStab:  Solving for Ux, Initial residual = 0.041335, Final residual = 6.57021e-07, No Iterations 36
[OGL LOG] init_host_sparsity_pattern : 267 ms
[OGL LOG] matrix not stored update host matrix
[OGL LOG] update_host_mtx : 146 ms
[OGL LOG] matrix is not yet sorted, sorting host matrix
[OGL LOG] sort_host_mtx_sparsity_pattern : 193 ms
[OGL LOG] sort_host_mtx : 125 ms
[OGL LOG] init_preconditioner : 0 ms
[OGL LOG] solve : 3671 ms
BJompGKOBiCGStab:  Solving for Uy, Initial residual = 0.131919, Final residual = 9.80739e-07, No Iterations 37
[OGL LOG] init_host_sparsity_pattern : 267 ms
[OGL LOG] matrix not stored update host matrix
[OGL LOG] update_host_mtx : 145 ms
[OGL LOG] matrix is not yet sorted, sorting host matrix
[OGL LOG] sort_host_mtx_sparsity_pattern : 192 ms
[OGL LOG] sort_host_mtx : 124 ms
[OGL LOG] init_preconditioner : 0 ms
[OGL LOG] solve : 4549 ms
BJompGKOBiCGStab:  Solving for Uz, Initial residual = 0.879067, Final residual = 9.24839e-07, No Iterations 46
[OGL LOG] init_preconditioner : 0 ms
[OGL LOG] solve : 56419 ms
BJompGKOBiCGStab:  Solving for p, Initial residual = 0.760345, Final residual = 7.70778e-07, No Iterations 579
time step continuity errors : sum local = 1.14553e-09, global = 1.32492e-21, cumulative = -1.11951e-20
[OGL LOG] init_preconditioner : 0 ms
[OGL LOG] solve : 53642 ms
BJompGKOBiCGStab:  Solving for p, Initial residual = 0.713312, Final residual = 7.85727e-07, No Iterations 552
time step continuity errors : sum local = 2.94417e-09, global = -5.32158e-23, cumulative = -1.12483e-20
ExecutionTime = 1211.69 s  ClockTime = 623 s

End

