/*---------------------------------------------------------------------------*\
  =========                 |
  \\      /  F ield         | OpenFOAM: The Open Source CFD Toolbox
   \\    /   O peration     | Website:  https://openfoam.org
    \\  /    A nd           | Version:  8
     \\/     M anipulation  |
\*---------------------------------------------------------------------------*/
Build  : 8-13d66902f78c
Exec   : icoFoam
Date   : Jun 24 2021
Time   : 16:12:38
Host   : "uc2n478.localdomain"
PID    : 2833315
I/O    : uncollated
Case   : /pfs/data5/home/kit/scc/nq7776/code/OGL_DATA/lidDrivenCavity3D/v0.1-113-g8300f3e/f584ccac99/IntelXeonGold6230CPU@2.10GHz/Test_2021-06-24-15:31:59/50/p-BiCGStab-GKO-BJ-omp/lidDrivenCavity3D
nProcs : 1
sigFpe : Enabling floating point exception trapping (FOAM_SIGFPE).
fileModificationChecking : Monitoring run-time modified files using timeStampMaster (fileModificationSkew 10)
allowSystemOperations : Allowing user-supplied system call operations

// * * * * * * * * * * * * * * * * * * * * * * * * * * * * * * * * * * * * * //
Create time

Create mesh for time = 0

Reading transportProperties

Reading field p

Reading field U

Reading/calculating face flux field phi


Starting time loop

Time = 0.002

Courant Number mean: 0 max: 0
nonePBiCGStab:  Solving for Ux, Initial residual = 1, Final residual = 0.0592055, No Iterations 5
nonePBiCGStab:  Solving for Uy, Initial residual = 0, Final residual = 0, No Iterations 0
nonePBiCGStab:  Solving for Uz, Initial residual = 0, Final residual = 0, No Iterations 0
Gingko init_host_sparsity_pattern : 35 ms
 matrix not stored update host matrix 
Gingko update_host_mtx : 18 ms
matrix is not yet sorted, compute sorting idxs 
 compute sorting idxs 860000
Gingko compute_sort : 1001 ms
matrix is not yet sorted,  sorting host matrix 
Gingko sort_host_mtx_sparsity_pattern : 23 ms
Gingko sort_host_mtx : 14 ms
Gingko init_preconditioner : 5 ms
Gingko solve : 1304 ms
 copy back
 get iters 
BJompGKOBiCGStab:  Solving for p, Initial residual = 0, Final residual = 9.53558e-07, No Iterations 281
time step continuity errors : sum local = 2.92948e-09, global = -7.52993e-21, cumulative = -7.52993e-21
 found preconditioner 
Gingko init_preconditioner : 0 ms
Gingko solve : 994 ms
 copy back
 get iters 
BJompGKOBiCGStab:  Solving for p, Initial residual = 1, Final residual = 9.28234e-07, No Iterations 269
time step continuity errors : sum local = 1.28069e-08, global = 2.10246e-20, cumulative = 1.34947e-20
ExecutionTime = 38.69 s  ClockTime = 4 s

Time = 0.004

Courant Number mean: 0.0636233 max: 0.723792
nonePBiCGStab:  Solving for Ux, Initial residual = 0.144135, Final residual = 0.02192, No Iterations 5
nonePBiCGStab:  Solving for Uy, Initial residual = 0.363931, Final residual = 0.0522817, No Iterations 5
nonePBiCGStab:  Solving for Uz, Initial residual = 0.973598, Final residual = 0.158922, No Iterations 5
 found preconditioner 
Gingko init_preconditioner : 0 ms
Gingko solve : 1012 ms
 copy back
 get iters 
BJompGKOBiCGStab:  Solving for p, Initial residual = 0.676727, Final residual = 5.93228e-07, No Iterations 268
time step continuity errors : sum local = 1.11261e-07, global = 1.50448e-20, cumulative = 2.85395e-20
 found preconditioner 
Gingko init_preconditioner : 0 ms
Gingko solve : 940 ms
 copy back
 get iters 
BJompGKOBiCGStab:  Solving for p, Initial residual = 0.668515, Final residual = 7.53629e-07, No Iterations 253
time step continuity errors : sum local = 8.06957e-08, global = -5.12852e-22, cumulative = 2.80266e-20
ExecutionTime = 70.08 s  ClockTime = 6 s

Time = 0.006

Courant Number mean: 0.0972276 max: 0.862514
nonePBiCGStab:  Solving for Ux, Initial residual = 0.052412, Final residual = 0.00685421, No Iterations 5
nonePBiCGStab:  Solving for Uy, Initial residual = 0.127071, Final residual = 0.0201257, No Iterations 5
nonePBiCGStab:  Solving for Uz, Initial residual = 0.36631, Final residual = 0.0530405, No Iterations 5
 found preconditioner 
Gingko init_preconditioner : 0 ms
Gingko solve : 980 ms
 copy back
 get iters 
BJompGKOBiCGStab:  Solving for p, Initial residual = 0.584675, Final residual = 5.75188e-07, No Iterations 263
time step continuity errors : sum local = 1.71737e-09, global = 3.39757e-20, cumulative = 6.20023e-20
 found preconditioner 
Gingko init_preconditioner : 0 ms
Gingko solve : 965 ms
 copy back
 get iters 
BJompGKOBiCGStab:  Solving for p, Initial residual = 0.594564, Final residual = 9.20568e-07, No Iterations 261
time step continuity errors : sum local = 6.74419e-09, global = -3.5334e-20, cumulative = 2.66683e-20
ExecutionTime = 101.37 s  ClockTime = 8 s

Time = 0.008

Courant Number mean: 0.113794 max: 0.88248
nonePBiCGStab:  Solving for Ux, Initial residual = 0.0289577, Final residual = 0.00344529, No Iterations 5
nonePBiCGStab:  Solving for Uy, Initial residual = 0.0844247, Final residual = 0.0109227, No Iterations 5
nonePBiCGStab:  Solving for Uz, Initial residual = 0.229349, Final residual = 0.029956, No Iterations 5
 found preconditioner 
Gingko init_preconditioner : 0 ms
Gingko solve : 947 ms
 copy back
 get iters 
BJompGKOBiCGStab:  Solving for p, Initial residual = 0.528719, Final residual = 9.73084e-07, No Iterations 252
time step continuity errors : sum local = 2.75885e-09, global = 1.2469e-21, cumulative = 2.79152e-20
 found preconditioner 
Gingko init_preconditioner : 0 ms
Gingko solve : 951 ms
 copy back
 get iters 
BJompGKOBiCGStab:  Solving for p, Initial residual = 0.411439, Final residual = 8.59554e-07, No Iterations 259
time step continuity errors : sum local = 2.71296e-09, global = -4.52509e-21, cumulative = 2.33901e-20
ExecutionTime = 131.93 s  ClockTime = 10 s

Time = 0.01

Courant Number mean: 0.127339 max: 0.898877
nonePBiCGStab:  Solving for Ux, Initial residual = 0.0202776, Final residual = 0.00208498, No Iterations 5
nonePBiCGStab:  Solving for Uy, Initial residual = 0.0505597, Final residual = 0.006238, No Iterations 5
nonePBiCGStab:  Solving for Uz, Initial residual = 0.112922, Final residual = 0.0180952, No Iterations 5
 found preconditioner 
Gingko init_preconditioner : 0 ms
Gingko solve : 973 ms
 copy back
 get iters 
BJompGKOBiCGStab:  Solving for p, Initial residual = 0.342699, Final residual = 9.08917e-07, No Iterations 265
time step continuity errors : sum local = 1.16856e-08, global = -3.82201e-20, cumulative = -1.483e-20
 found preconditioner 
Gingko init_preconditioner : 0 ms
Gingko solve : 951 ms
 copy back
 get iters 
BJompGKOBiCGStab:  Solving for p, Initial residual = 0.354046, Final residual = 8.97729e-07, No Iterations 260
time step continuity errors : sum local = 4.00574e-09, global = 2.10438e-20, cumulative = 6.2138e-21
ExecutionTime = 162.89 s  ClockTime = 12 s

End

