/*---------------------------------------------------------------------------*\
  =========                 |
  \\      /  F ield         | OpenFOAM: The Open Source CFD Toolbox
   \\    /   O peration     | Website:  https://openfoam.org
    \\  /    A nd           | Version:  8
     \\/     M anipulation  |
\*---------------------------------------------------------------------------*/
Build  : 8-13d66902f78c
Exec   : icoFoam
Date   : Jul 04 2021
Time   : 10:06:59
Host   : "uc2n384.localdomain"
PID    : 2631701
I/O    : uncollated
Case   : /pfs/data5/home/kit/scc/nq7776/code/OGL_DATA/lidDrivenCavity3D/v0.1-136-g40fef35/f584ccac99/IntelXeonGold6230CPU@2.10GHz/Test_2021-07-04-08:57:08/75/p-U-CG-GKO-BJ-omp/lidDrivenCavity3D
nProcs : 1
sigFpe : Enabling floating point exception trapping (FOAM_SIGFPE).
fileModificationChecking : Monitoring run-time modified files using timeStampMaster (fileModificationSkew 10)
allowSystemOperations : Allowing user-supplied system call operations

// * * * * * * * * * * * * * * * * * * * * * * * * * * * * * * * * * * * * * //
Create time

Create mesh for time = 0

Reading transportProperties

Reading field p

Reading field U

Reading/calculating face flux field phi


Starting time loop

Time = 0.00133333

Courant Number mean: 0 max: 0
[OGL LOG] init_host_sparsity_pattern : 121 ms
[OGL LOG] matrix not stored update host matrix
[OGL LOG] update_host_mtx : 61 ms
[OGL LOG] matrix is not yet sorted, compute sorting idxs
[OGL LOG] compute_sort : 3650 ms
[OGL LOG] matrix is not yet sorted, sorting host matrix
[OGL LOG] sort_host_mtx_sparsity_pattern : 78 ms
[OGL LOG] sort_host_mtx : 52 ms
[OGL LOG] init_preconditioner : 18 ms
[OGL LOG] solve : 678 ms
BJompGKOBiCGStab:  Solving for Ux, Initial residual = 1, Final residual = 8.57454e-07, No Iterations 40
[OGL LOG] init_host_sparsity_pattern : 117 ms
[OGL LOG] matrix not stored update host matrix
[OGL LOG] update_host_mtx : 61 ms
[OGL LOG] matrix is not yet sorted, sorting host matrix
[OGL LOG] sort_host_mtx_sparsity_pattern : 80 ms
[OGL LOG] sort_host_mtx : 43 ms
[OGL LOG] init_preconditioner : 20 ms
[OGL LOG] solve : 16 ms
BJompGKOBiCGStab:  Solving for Uy, Initial residual = 0, Final residual = 0, No Iterations 0
[OGL LOG] init_host_sparsity_pattern : 112 ms
[OGL LOG] matrix not stored update host matrix
[OGL LOG] update_host_mtx : 54 ms
[OGL LOG] matrix is not yet sorted, sorting host matrix
[OGL LOG] sort_host_mtx_sparsity_pattern : 76 ms
[OGL LOG] sort_host_mtx : 48 ms
[OGL LOG] init_preconditioner : 32 ms
[OGL LOG] solve : 21 ms
BJompGKOBiCGStab:  Solving for Uz, Initial residual = 0, Final residual = 0, No Iterations 0
[OGL LOG] init_host_sparsity_pattern : 112 ms
[OGL LOG] matrix not stored update host matrix
[OGL LOG] update_host_mtx : 62 ms
[OGL LOG] matrix is not yet sorted, sorting host matrix
[OGL LOG] sort_host_mtx_sparsity_pattern : 81 ms
[OGL LOG] sort_host_mtx : 43 ms
[OGL LOG] init_preconditioner : 27 ms
 CG create  precond 
[OGL LOG] solve : 4944 ms
BJompGKOCG:  Solving for p, Initial residual = 1, Final residual = 9.42284e-07, No Iterations 578
time step continuity errors : sum local = 8.60698e-10, global = -8.69e-22, cumulative = -8.69e-22
[OGL LOG] init_preconditioner : 0 ms
 CG create  precond 
[OGL LOG] solve : 4719 ms
BJompGKOCG:  Solving for p, Initial residual = 0.759329, Final residual = 9.81626e-07, No Iterations 571
time step continuity errors : sum local = 1.14781e-09, global = 2.1662e-21, cumulative = 1.2972e-21
ExecutionTime = 90.76 s  ClockTime = 17 s

Time = 0.00266667

Courant Number mean: 0.0631768 max: 0.775367
[OGL LOG] init_host_sparsity_pattern : 113 ms
[OGL LOG] matrix not stored update host matrix
[OGL LOG] update_host_mtx : 62 ms
[OGL LOG] matrix is not yet sorted, sorting host matrix
[OGL LOG] sort_host_mtx_sparsity_pattern : 93 ms
[OGL LOG] sort_host_mtx : 43 ms
[OGL LOG] init_preconditioner : 0 ms
[OGL LOG] solve : 512 ms
BJompGKOBiCGStab:  Solving for Ux, Initial residual = 0.183034, Final residual = 7.80716e-07, No Iterations 28
[OGL LOG] init_host_sparsity_pattern : 112 ms
[OGL LOG] matrix not stored update host matrix
[OGL LOG] update_host_mtx : 53 ms
[OGL LOG] matrix is not yet sorted, sorting host matrix
[OGL LOG] sort_host_mtx_sparsity_pattern : 72 ms
[OGL LOG] sort_host_mtx : 43 ms
[OGL LOG] init_preconditioner : 0 ms
[OGL LOG] solve : 701 ms
BJompGKOBiCGStab:  Solving for Uy, Initial residual = 0.619629, Final residual = 9.4185e-07, No Iterations 39
[OGL LOG] init_host_sparsity_pattern : 114 ms
[OGL LOG] matrix not stored update host matrix
[OGL LOG] update_host_mtx : 58 ms
[OGL LOG] matrix is not yet sorted, sorting host matrix
[OGL LOG] sort_host_mtx_sparsity_pattern : 76 ms
[OGL LOG] sort_host_mtx : 43 ms
[OGL LOG] init_preconditioner : 0 ms
[OGL LOG] solve : 668 ms
BJompGKOBiCGStab:  Solving for Uz, Initial residual = 0.604718, Final residual = 8.02962e-07, No Iterations 37
[OGL LOG] init_preconditioner : 0 ms
 CG create  precond 
[OGL LOG] solve : 4866 ms
BJompGKOCG:  Solving for p, Initial residual = 0.749131, Final residual = 9.60224e-07, No Iterations 573
time step continuity errors : sum local = 1.36719e-09, global = -6.20567e-21, cumulative = -4.90847e-21
[OGL LOG] init_preconditioner : 0 ms
 CG create  precond 
[OGL LOG] solve : 4961 ms
BJompGKOCG:  Solving for p, Initial residual = 0.683908, Final residual = 9.38557e-07, No Iterations 572
time step continuity errors : sum local = 1.36578e-09, global = 4.35551e-21, cumulative = -5.52958e-22
ExecutionTime = 185.52 s  ClockTime = 31 s

Time = 0.004

Courant Number mean: 0.095146 max: 0.917097
[OGL LOG] init_host_sparsity_pattern : 112 ms
[OGL LOG] matrix not stored update host matrix
[OGL LOG] update_host_mtx : 60 ms
[OGL LOG] matrix is not yet sorted, sorting host matrix
[OGL LOG] sort_host_mtx_sparsity_pattern : 79 ms
[OGL LOG] sort_host_mtx : 43 ms
[OGL LOG] init_preconditioner : 0 ms
[OGL LOG] solve : 434 ms
BJompGKOBiCGStab:  Solving for Ux, Initial residual = 0.101944, Final residual = 8.39996e-07, No Iterations 25
[OGL LOG] init_host_sparsity_pattern : 112 ms
[OGL LOG] matrix not stored update host matrix
[OGL LOG] update_host_mtx : 53 ms
[OGL LOG] matrix is not yet sorted, sorting host matrix
[OGL LOG] sort_host_mtx_sparsity_pattern : 72 ms
[OGL LOG] sort_host_mtx : 43 ms
[OGL LOG] init_preconditioner : 0 ms
[OGL LOG] solve : 685 ms
BJompGKOBiCGStab:  Solving for Uy, Initial residual = 0.335433, Final residual = 4.86075e-07, No Iterations 40
[OGL LOG] init_host_sparsity_pattern : 112 ms
[OGL LOG] matrix not stored update host matrix
[OGL LOG] update_host_mtx : 53 ms
[OGL LOG] matrix is not yet sorted, sorting host matrix
[OGL LOG] sort_host_mtx_sparsity_pattern : 72 ms
[OGL LOG] sort_host_mtx : 43 ms
[OGL LOG] init_preconditioner : 0 ms
[OGL LOG] solve : 735 ms
BJompGKOBiCGStab:  Solving for Uz, Initial residual = 0.920729, Final residual = 5.91703e-07, No Iterations 43
[OGL LOG] init_preconditioner : 0 ms
 CG create  precond 
[OGL LOG] solve : 5336 ms
BJompGKOCG:  Solving for p, Initial residual = 0.754755, Final residual = 9.84888e-07, No Iterations 617
time step continuity errors : sum local = 1.15779e-09, global = 5.4439e-21, cumulative = 4.89094e-21
[OGL LOG] init_preconditioner : 0 ms
 CG create  precond 
[OGL LOG] solve : 5303 ms
BJompGKOCG:  Solving for p, Initial residual = 0.717022, Final residual = 9.7383e-07, No Iterations 617
time step continuity errors : sum local = 1.11087e-09, global = 1.59309e-20, cumulative = 2.08218e-20
ExecutionTime = 286.78 s  ClockTime = 44 s

Time = 0.00533333

Courant Number mean: 0.109256 max: 0.913436
[OGL LOG] init_host_sparsity_pattern : 112 ms
[OGL LOG] matrix not stored update host matrix
[OGL LOG] update_host_mtx : 57 ms
[OGL LOG] matrix is not yet sorted, sorting host matrix
[OGL LOG] sort_host_mtx_sparsity_pattern : 79 ms
[OGL LOG] sort_host_mtx : 43 ms
[OGL LOG] init_preconditioner : 0 ms
[OGL LOG] solve : 461 ms
BJompGKOBiCGStab:  Solving for Ux, Initial residual = 0.0446964, Final residual = 6.59645e-07, No Iterations 27
[OGL LOG] init_host_sparsity_pattern : 112 ms
[OGL LOG] matrix not stored update host matrix
[OGL LOG] update_host_mtx : 53 ms
[OGL LOG] matrix is not yet sorted, sorting host matrix
[OGL LOG] sort_host_mtx_sparsity_pattern : 72 ms
[OGL LOG] sort_host_mtx : 43 ms
[OGL LOG] init_preconditioner : 0 ms
[OGL LOG] solve : 611 ms
BJompGKOBiCGStab:  Solving for Uy, Initial residual = 0.197562, Final residual = 8.22736e-07, No Iterations 36
[OGL LOG] init_host_sparsity_pattern : 112 ms
[OGL LOG] matrix not stored update host matrix
[OGL LOG] update_host_mtx : 53 ms
[OGL LOG] matrix is not yet sorted, sorting host matrix
[OGL LOG] sort_host_mtx_sparsity_pattern : 72 ms
[OGL LOG] sort_host_mtx : 43 ms
[OGL LOG] init_preconditioner : 0 ms
[OGL LOG] solve : 585 ms
BJompGKOBiCGStab:  Solving for Uz, Initial residual = 0.732488, Final residual = 8.31382e-07, No Iterations 34
[OGL LOG] init_preconditioner : 0 ms
 CG create  precond 
[OGL LOG] solve : 5320 ms
BJompGKOCG:  Solving for p, Initial residual = 0.617354, Final residual = 9.60684e-07, No Iterations 622
time step continuity errors : sum local = 1.0009e-09, global = 2.59816e-20, cumulative = 4.68034e-20
[OGL LOG] init_preconditioner : 0 ms
 CG create  precond 
[OGL LOG] solve : 5196 ms
BJompGKOCG:  Solving for p, Initial residual = 0.554749, Final residual = 9.75415e-07, No Iterations 618
time step continuity errors : sum local = 1.03078e-09, global = 1.37494e-20, cumulative = 6.05528e-20
ExecutionTime = 385.33 s  ClockTime = 58 s

Time = 0.00666667

Courant Number mean: 0.122085 max: 0.929082
[OGL LOG] init_host_sparsity_pattern : 112 ms
[OGL LOG] matrix not stored update host matrix
[OGL LOG] update_host_mtx : 54 ms
[OGL LOG] matrix is not yet sorted, sorting host matrix
[OGL LOG] sort_host_mtx_sparsity_pattern : 79 ms
[OGL LOG] sort_host_mtx : 43 ms
[OGL LOG] init_preconditioner : 0 ms
[OGL LOG] solve : 446 ms
BJompGKOBiCGStab:  Solving for Ux, Initial residual = 0.0319073, Final residual = 4.06179e-07, No Iterations 26
[OGL LOG] init_host_sparsity_pattern : 112 ms
[OGL LOG] matrix not stored update host matrix
[OGL LOG] update_host_mtx : 53 ms
[OGL LOG] matrix is not yet sorted, sorting host matrix
[OGL LOG] sort_host_mtx_sparsity_pattern : 72 ms
[OGL LOG] sort_host_mtx : 43 ms
[OGL LOG] init_preconditioner : 0 ms
[OGL LOG] solve : 622 ms
BJompGKOBiCGStab:  Solving for Uy, Initial residual = 0.0804623, Final residual = 7.61465e-07, No Iterations 36
[OGL LOG] init_host_sparsity_pattern : 112 ms
[OGL LOG] matrix not stored update host matrix
[OGL LOG] update_host_mtx : 53 ms
[OGL LOG] matrix is not yet sorted, sorting host matrix
[OGL LOG] sort_host_mtx_sparsity_pattern : 72 ms
[OGL LOG] sort_host_mtx : 43 ms
[OGL LOG] init_preconditioner : 0 ms
[OGL LOG] solve : 656 ms
BJompGKOBiCGStab:  Solving for Uz, Initial residual = 0.513475, Final residual = 9.12751e-07, No Iterations 38
[OGL LOG] init_preconditioner : 0 ms
 CG create  precond 
[OGL LOG] solve : 5058 ms
BJompGKOCG:  Solving for p, Initial residual = 0.591993, Final residual = 9.71817e-07, No Iterations 601
time step continuity errors : sum local = 8.13365e-10, global = -1.87793e-23, cumulative = 6.0534e-20
[OGL LOG] init_preconditioner : 0 ms
 CG create  precond 
[OGL LOG] solve : 5031 ms
BJompGKOCG:  Solving for p, Initial residual = 0.54312, Final residual = 9.51363e-07, No Iterations 600
time step continuity errors : sum local = 7.86381e-10, global = 1.06975e-20, cumulative = 7.12315e-20
ExecutionTime = 481.08 s  ClockTime = 71 s

End

