/*---------------------------------------------------------------------------*\
  =========                 |
  \\      /  F ield         | OpenFOAM: The Open Source CFD Toolbox
   \\    /   O peration     | Website:  https://openfoam.org
    \\  /    A nd           | Version:  8
     \\/     M anipulation  |
\*---------------------------------------------------------------------------*/
Build  : 8-13d66902f78c
Exec   : icoFoam
Date   : Jul 04 2021
Time   : 08:46:33
Host   : "uc2n419.localdomain"
PID    : 2891382
I/O    : uncollated
Case   : /pfs/data5/home/kit/scc/nq7776/code/OGL_DATA/lidDrivenCavity3D/v0.1-136-g40fef35/f584ccac99/IntelXeonGold6230CPU@2.10GHz/Test_2021-07-04-07:33:43/75/p-CG-GKO-BJ-omp/lidDrivenCavity3D
nProcs : 1
sigFpe : Enabling floating point exception trapping (FOAM_SIGFPE).
fileModificationChecking : Monitoring run-time modified files using timeStampMaster (fileModificationSkew 10)
allowSystemOperations : Allowing user-supplied system call operations

// * * * * * * * * * * * * * * * * * * * * * * * * * * * * * * * * * * * * * //
Create time

Create mesh for time = 0

Reading transportProperties

Reading field p

Reading field U

Reading/calculating face flux field phi


Starting time loop

Time = 0.00133333

Courant Number mean: 0 max: 0
nonePBiCGStab:  Solving for Ux, Initial residual = 1, Final residual = 0.0730231, No Iterations 5
nonePBiCGStab:  Solving for Uy, Initial residual = 0, Final residual = 0, No Iterations 0
nonePBiCGStab:  Solving for Uz, Initial residual = 0, Final residual = 0, No Iterations 0
[OGL LOG] init_host_sparsity_pattern : 123 ms
[OGL LOG] matrix not stored update host matrix
[OGL LOG] update_host_mtx : 62 ms
[OGL LOG] matrix is not yet sorted, compute sorting idxs
[OGL LOG] compute_sort : 3636 ms
[OGL LOG] matrix is not yet sorted, sorting host matrix
[OGL LOG] sort_host_mtx_sparsity_pattern : 81 ms
[OGL LOG] sort_host_mtx : 52 ms
[OGL LOG] init_preconditioner : 16 ms
 CG create  precond 
[OGL LOG] solve : 4315 ms
BJompGKOCG:  Solving for p, Initial residual = 1, Final residual = 9.37755e-07, No Iterations 579
time step continuity errors : sum local = 5.95792e-10, global = 8.70891e-21, cumulative = 8.70891e-21
[OGL LOG] init_preconditioner : 0 ms
 CG create  precond 
[OGL LOG] solve : 4177 ms
BJompGKOCG:  Solving for p, Initial residual = 0.697106, Final residual = 9.99736e-07, No Iterations 567
time step continuity errors : sum local = 8.85911e-10, global = -1.02954e-20, cumulative = -1.5865e-21
ExecutionTime = 547.48 s  ClockTime = 15 s

Time = 0.00266667

Courant Number mean: 0.0508075 max: 0.767232
nonePBiCGStab:  Solving for Ux, Initial residual = 0.140592, Final residual = 0.0324525, No Iterations 5
nonePBiCGStab:  Solving for Uy, Initial residual = 0.413642, Final residual = 0.0923278, No Iterations 5
nonePBiCGStab:  Solving for Uz, Initial residual = 0.983213, Final residual = 0.249883, No Iterations 5
[OGL LOG] init_preconditioner : 0 ms
 CG create  precond 
[OGL LOG] solve : 3852 ms
BJompGKOCG:  Solving for p, Initial residual = 0.746898, Final residual = 9.98101e-07, No Iterations 565
time step continuity errors : sum local = 1.34384e-09, global = 1.42302e-20, cumulative = 1.26437e-20
[OGL LOG] init_preconditioner : 0 ms
 CG create  precond 
[OGL LOG] solve : 3856 ms
BJompGKOCG:  Solving for p, Initial residual = 0.668136, Final residual = 9.95166e-07, No Iterations 561
time step continuity errors : sum local = 1.36666e-09, global = -7.63152e-21, cumulative = 5.01222e-21
ExecutionTime = 1039.76 s  ClockTime = 23 s

Time = 0.004

Courant Number mean: 0.0796134 max: 0.886021
nonePBiCGStab:  Solving for Ux, Initial residual = 0.0584505, Final residual = 0.011149, No Iterations 5
nonePBiCGStab:  Solving for Uy, Initial residual = 0.171953, Final residual = 0.0398782, No Iterations 5
nonePBiCGStab:  Solving for Uz, Initial residual = 0.61094, Final residual = 0.142315, No Iterations 5
[OGL LOG] init_preconditioner : 0 ms
 CG create  precond 
[OGL LOG] solve : 3838 ms
BJompGKOCG:  Solving for p, Initial residual = 0.730362, Final residual = 9.61605e-07, No Iterations 564
time step continuity errors : sum local = 9.62105e-10, global = 7.40905e-21, cumulative = 1.24213e-20
[OGL LOG] init_preconditioner : 0 ms
 CG create  precond 
[OGL LOG] solve : 3832 ms
BJompGKOCG:  Solving for p, Initial residual = 0.660896, Final residual = 9.89807e-07, No Iterations 561
time step continuity errors : sum local = 9.62643e-10, global = -5.91687e-21, cumulative = 6.5044e-21
ExecutionTime = 1530.13 s  ClockTime = 31 s

Time = 0.00533333

Courant Number mean: 0.0948105 max: 0.902547
nonePBiCGStab:  Solving for Ux, Initial residual = 0.0345946, Final residual = 0.00682907, No Iterations 5
nonePBiCGStab:  Solving for Uy, Initial residual = 0.11955, Final residual = 0.0298199, No Iterations 5
nonePBiCGStab:  Solving for Uz, Initial residual = 0.386284, Final residual = 0.0806799, No Iterations 5
[OGL LOG] init_preconditioner : 0 ms
 CG create  precond 
[OGL LOG] solve : 3750 ms
BJompGKOCG:  Solving for p, Initial residual = 0.609798, Final residual = 9.70716e-07, No Iterations 552
time step continuity errors : sum local = 9.57354e-10, global = -2.86116e-21, cumulative = 3.64324e-21
[OGL LOG] init_preconditioner : 0 ms
 CG create  precond 
[OGL LOG] solve : 3757 ms
BJompGKOCG:  Solving for p, Initial residual = 0.521107, Final residual = 9.53788e-07, No Iterations 550
time step continuity errors : sum local = 9.60779e-10, global = 2.08385e-20, cumulative = 2.44817e-20
ExecutionTime = 2010.12 s  ClockTime = 39 s

Time = 0.00666667

Courant Number mean: 0.107177 max: 0.916755
nonePBiCGStab:  Solving for Ux, Initial residual = 0.0257329, Final residual = 0.0050315, No Iterations 5
nonePBiCGStab:  Solving for Uy, Initial residual = 0.0750464, Final residual = 0.020821, No Iterations 5
nonePBiCGStab:  Solving for Uz, Initial residual = 0.212734, Final residual = 0.0495468, No Iterations 5
[OGL LOG] init_preconditioner : 0 ms
 CG create  precond 
[OGL LOG] solve : 4233 ms
BJompGKOCG:  Solving for p, Initial residual = 0.629325, Final residual = 8.95213e-07, No Iterations 549
time step continuity errors : sum local = 7.57696e-10, global = -1.03191e-20, cumulative = 1.41627e-20
[OGL LOG] init_preconditioner : 0 ms
 CG create  precond 
[OGL LOG] solve : 4151 ms
BJompGKOCG:  Solving for p, Initial residual = 0.55216, Final residual = 9.23944e-07, No Iterations 548
time step continuity errors : sum local = 7.70921e-10, global = 3.51571e-20, cumulative = 4.93198e-20
ExecutionTime = 2545.87 s  ClockTime = 48 s

End

