/*---------------------------------------------------------------------------*\
  =========                 |
  \\      /  F ield         | OpenFOAM: The Open Source CFD Toolbox
   \\    /   O peration     | Website:  https://openfoam.org
    \\  /    A nd           | Version:  8
     \\/     M anipulation  |
\*---------------------------------------------------------------------------*/
Build  : 8-13d66902f78c
Exec   : icoFoam
Date   : Jul 04 2021
Time   : 07:30:57
Host   : "uc2n420.localdomain"
PID    : 1119494
I/O    : uncollated
Case   : /pfs/data5/home/kit/scc/nq7776/code/OGL_DATA/lidDrivenCavity3D/v0.1-136-g40fef35/f584ccac99/IntelXeonGold6230CPU@2.10GHz/Test_2021-07-04-07:18:41/50/p-BiCGStab-GKO-none-omp/lidDrivenCavity3D
nProcs : 1
sigFpe : Enabling floating point exception trapping (FOAM_SIGFPE).
fileModificationChecking : Monitoring run-time modified files using timeStampMaster (fileModificationSkew 10)
allowSystemOperations : Allowing user-supplied system call operations

// * * * * * * * * * * * * * * * * * * * * * * * * * * * * * * * * * * * * * //
Create time

Create mesh for time = 0

Reading transportProperties

Reading field p

Reading field U

Reading/calculating face flux field phi


Starting time loop

Time = 0.002

Courant Number mean: 0 max: 0
nonePBiCGStab:  Solving for Ux, Initial residual = 1, Final residual = 0.0592055, No Iterations 5
nonePBiCGStab:  Solving for Uy, Initial residual = 0, Final residual = 0, No Iterations 0
nonePBiCGStab:  Solving for Uz, Initial residual = 0, Final residual = 0, No Iterations 0
[OGL LOG] init_host_sparsity_pattern : 35 ms
[OGL LOG] matrix not stored update host matrix
[OGL LOG] update_host_mtx : 18 ms
[OGL LOG] matrix is not yet sorted, compute sorting idxs
[OGL LOG] compute_sort : 985 ms
[OGL LOG] matrix is not yet sorted, sorting host matrix
[OGL LOG] sort_host_mtx_sparsity_pattern : 23 ms
[OGL LOG] sort_host_mtx : 14 ms
[OGL LOG] init_preconditioner : 0 ms
[OGL LOG] solve : 1316 ms
noneompGKOBiCGStab:  Solving for p, Initial residual = 1, Final residual = 5.67034e-07, No Iterations 354
time step continuity errors : sum local = 3.74675e-07, global = -1.8662e-20, cumulative = -1.8662e-20
[OGL LOG] init_preconditioner : 0 ms
[OGL LOG] solve : 1287 ms
noneompGKOBiCGStab:  Solving for p, Initial residual = 0.676696, Final residual = 9.49432e-07, No Iterations 352
time step continuity errors : sum local = 1.12913e-08, global = 4.38382e-20, cumulative = 2.51761e-20
ExecutionTime = 12.14 s  ClockTime = 4 s

Time = 0.004

Courant Number mean: 0.0636233 max: 0.723792
nonePBiCGStab:  Solving for Ux, Initial residual = 0.144133, Final residual = 0.0219192, No Iterations 5
nonePBiCGStab:  Solving for Uy, Initial residual = 0.363932, Final residual = 0.0524362, No Iterations 5
nonePBiCGStab:  Solving for Uz, Initial residual = 0.973462, Final residual = 0.159843, No Iterations 5
[OGL LOG] init_preconditioner : 0 ms
[OGL LOG] solve : 1273 ms
noneompGKOBiCGStab:  Solving for p, Initial residual = 0.66843, Final residual = 9.50664e-07, No Iterations 354
time step continuity errors : sum local = 2.01764e-07, global = 6.14563e-20, cumulative = 8.66324e-20
[OGL LOG] init_preconditioner : 0 ms
[OGL LOG] solve : 1295 ms
noneompGKOBiCGStab:  Solving for p, Initial residual = 0.584586, Final residual = 3.08546e-07, No Iterations 361
time step continuity errors : sum local = 6.90082e-08, global = -1.20643e-20, cumulative = 7.45681e-20
ExecutionTime = 22.55 s  ClockTime = 7 s

Time = 0.006

Courant Number mean: 0.0972225 max: 0.862506
nonePBiCGStab:  Solving for Ux, Initial residual = 0.0524155, Final residual = 0.00685607, No Iterations 5
nonePBiCGStab:  Solving for Uy, Initial residual = 0.127075, Final residual = 0.0201598, No Iterations 5
nonePBiCGStab:  Solving for Uz, Initial residual = 0.36663, Final residual = 0.0534612, No Iterations 5
[OGL LOG] init_preconditioner : 0 ms
[OGL LOG] solve : 1242 ms
noneompGKOBiCGStab:  Solving for p, Initial residual = 0.59451, Final residual = 8.53458e-07, No Iterations 347
time step continuity errors : sum local = 7.64279e-09, global = -1.40219e-20, cumulative = 6.05462e-20
[OGL LOG] init_preconditioner : 0 ms
[OGL LOG] solve : 1233 ms
noneompGKOBiCGStab:  Solving for p, Initial residual = 0.528665, Final residual = 7.83301e-07, No Iterations 345
time step continuity errors : sum local = 1.84859e-08, global = 3.55604e-20, cumulative = 9.61065e-20
ExecutionTime = 32.59 s  ClockTime = 9 s

Time = 0.008

Courant Number mean: 0.113789 max: 0.882477
nonePBiCGStab:  Solving for Ux, Initial residual = 0.0289574, Final residual = 0.00344408, No Iterations 5
nonePBiCGStab:  Solving for Uy, Initial residual = 0.0844335, Final residual = 0.0108885, No Iterations 5
nonePBiCGStab:  Solving for Uz, Initial residual = 0.229658, Final residual = 0.0301176, No Iterations 5
[OGL LOG] init_preconditioner : 0 ms
[OGL LOG] solve : 800 ms
noneompGKOBiCGStab:  Solving for p, Initial residual = 0.411359, Final residual = 9.67732e-07, No Iterations 229
time step continuity errors : sum local = 2.12987e-09, global = 3.93594e-21, cumulative = 1.00042e-19
[OGL LOG] init_preconditioner : 0 ms
[OGL LOG] solve : 1220 ms
noneompGKOBiCGStab:  Solving for p, Initial residual = 0.342593, Final residual = 9.94055e-07, No Iterations 348
time step continuity errors : sum local = 5.66478e-09, global = 4.62417e-20, cumulative = 1.46284e-19
ExecutionTime = 40.81 s  ClockTime = 12 s

Time = 0.01

Courant Number mean: 0.127336 max: 0.898877
nonePBiCGStab:  Solving for Ux, Initial residual = 0.0202783, Final residual = 0.00208544, No Iterations 5
nonePBiCGStab:  Solving for Uy, Initial residual = 0.0505504, Final residual = 0.00623285, No Iterations 5
nonePBiCGStab:  Solving for Uz, Initial residual = 0.113151, Final residual = 0.0181092, No Iterations 5
[OGL LOG] init_preconditioner : 0 ms
[OGL LOG] solve : 1160 ms
noneompGKOBiCGStab:  Solving for p, Initial residual = 0.354033, Final residual = 9.81242e-07, No Iterations 331
time step continuity errors : sum local = 4.22254e-09, global = -7.50134e-21, cumulative = 1.38783e-19
[OGL LOG] init_preconditioner : 0 ms
[OGL LOG] solve : 1115 ms
noneompGKOBiCGStab:  Solving for p, Initial residual = 0.302206, Final residual = 8.67233e-07, No Iterations 320
time step continuity errors : sum local = 1.64015e-08, global = 4.62898e-20, cumulative = 1.85073e-19
ExecutionTime = 50.04 s  ClockTime = 14 s

End

