/*---------------------------------------------------------------------------*\
  =========                 |
  \\      /  F ield         | OpenFOAM: The Open Source CFD Toolbox
   \\    /   O peration     | Website:  https://openfoam.org
    \\  /    A nd           | Version:  8
     \\/     M anipulation  |
\*---------------------------------------------------------------------------*/
Build  : 8-13d66902f78c
Exec   : icoFoam
Date   : Jul 04 2021
Time   : 08:40:54
Host   : "uc2n399.localdomain"
PID    : 2494161
I/O    : uncollated
Case   : /pfs/data5/home/kit/scc/nq7776/code/OGL_DATA/lidDrivenCavity3D/v0.1-136-g40fef35/f584ccac99/IntelXeonGold6230CPU@2.10GHz/Test_2021-07-04-08:36:30/25/p-U-CG-GKO-none-omp/lidDrivenCavity3D
nProcs : 1
sigFpe : Enabling floating point exception trapping (FOAM_SIGFPE).
fileModificationChecking : Monitoring run-time modified files using timeStampMaster (fileModificationSkew 10)
allowSystemOperations : Allowing user-supplied system call operations

// * * * * * * * * * * * * * * * * * * * * * * * * * * * * * * * * * * * * * //
Create time

Create mesh for time = 0

Reading transportProperties

Reading field p

Reading field U

Reading/calculating face flux field phi


Starting time loop

Time = 0.016

Courant Number mean: 0 max: 0
[OGL LOG] init_host_sparsity_pattern : 4 ms
[OGL LOG] matrix not stored update host matrix
[OGL LOG] update_host_mtx : 2 ms
[OGL LOG] matrix is not yet sorted, compute sorting idxs
[OGL LOG] compute_sort : 110 ms
[OGL LOG] matrix is not yet sorted, sorting host matrix
[OGL LOG] sort_host_mtx_sparsity_pattern : 2 ms
[OGL LOG] sort_host_mtx : 1 ms
[OGL LOG] init_preconditioner : 0 ms
[OGL LOG] solve : 19 ms
noneompGKOBiCGStab:  Solving for Ux, Initial residual = 1, Final residual = 9.17551e-07, No Iterations 42
[OGL LOG] init_host_sparsity_pattern : 4 ms
[OGL LOG] matrix not stored update host matrix
[OGL LOG] update_host_mtx : 2 ms
[OGL LOG] matrix is not yet sorted, sorting host matrix
[OGL LOG] sort_host_mtx_sparsity_pattern : 3 ms
[OGL LOG] sort_host_mtx : 1 ms
[OGL LOG] init_preconditioner : 0 ms
[OGL LOG] solve : 0 ms
noneompGKOBiCGStab:  Solving for Uy, Initial residual = 0, Final residual = 0, No Iterations 0
[OGL LOG] init_host_sparsity_pattern : 4 ms
[OGL LOG] matrix not stored update host matrix
[OGL LOG] update_host_mtx : 1 ms
[OGL LOG] matrix is not yet sorted, sorting host matrix
[OGL LOG] sort_host_mtx_sparsity_pattern : 2 ms
[OGL LOG] sort_host_mtx : 1 ms
[OGL LOG] init_preconditioner : 0 ms
[OGL LOG] solve : 0 ms
noneompGKOBiCGStab:  Solving for Uz, Initial residual = 0, Final residual = 0, No Iterations 0
[OGL LOG] init_host_sparsity_pattern : 4 ms
[OGL LOG] matrix not stored update host matrix
[OGL LOG] update_host_mtx : 1 ms
[OGL LOG] matrix is not yet sorted, sorting host matrix
[OGL LOG] sort_host_mtx_sparsity_pattern : 2 ms
[OGL LOG] sort_host_mtx : 1 ms
[OGL LOG] init_preconditioner : 0 ms
[OGL LOG] solve : 49 ms
noneompGKOCG:  Solving for p, Initial residual = 1, Final residual = 9.14982e-07, No Iterations 217
time step continuity errors : sum local = 3.03999e-08, global = -2.16606e-19, cumulative = -2.16606e-19
[OGL LOG] init_preconditioner : 0 ms
[OGL LOG] solve : 48 ms
noneompGKOCG:  Solving for p, Initial residual = 0.752917, Final residual = 9.18497e-07, No Iterations 214
time step continuity errors : sum local = 3.86049e-08, global = 2.88481e-19, cumulative = 7.18755e-20
ExecutionTime = 2.49 s  ClockTime = 0 s

Time = 0.032

Courant Number mean: 0.51472 max: 2.81436
[OGL LOG] init_host_sparsity_pattern : 4 ms
[OGL LOG] matrix not stored update host matrix
[OGL LOG] update_host_mtx : 1 ms
[OGL LOG] matrix is not yet sorted, sorting host matrix
[OGL LOG] sort_host_mtx_sparsity_pattern : 2 ms
[OGL LOG] sort_host_mtx : 1 ms
[OGL LOG] init_preconditioner : 0 ms
[OGL LOG] solve : 17 ms
noneompGKOBiCGStab:  Solving for Ux, Initial residual = 0.237237, Final residual = 5.9752e-07, No Iterations 40
[OGL LOG] init_host_sparsity_pattern : 4 ms
[OGL LOG] matrix not stored update host matrix
[OGL LOG] update_host_mtx : 2 ms
[OGL LOG] matrix is not yet sorted, sorting host matrix
[OGL LOG] sort_host_mtx_sparsity_pattern : 2 ms
[OGL LOG] sort_host_mtx : 1 ms
[OGL LOG] init_preconditioner : 0 ms
[OGL LOG] solve : 18 ms
noneompGKOBiCGStab:  Solving for Uy, Initial residual = 0.587629, Final residual = 5.79929e-07, No Iterations 42
[OGL LOG] init_host_sparsity_pattern : 4 ms
[OGL LOG] matrix not stored update host matrix
[OGL LOG] update_host_mtx : 2 ms
[OGL LOG] matrix is not yet sorted, sorting host matrix
[OGL LOG] sort_host_mtx_sparsity_pattern : 2 ms
[OGL LOG] sort_host_mtx : 1 ms
[OGL LOG] init_preconditioner : 0 ms
[OGL LOG] solve : 19 ms
noneompGKOBiCGStab:  Solving for Uz, Initial residual = 0.353126, Final residual = 6.6966e-07, No Iterations 42
[OGL LOG] init_preconditioner : 0 ms
[OGL LOG] solve : 48 ms
noneompGKOCG:  Solving for p, Initial residual = 0.76318, Final residual = 9.38746e-07, No Iterations 214
time step continuity errors : sum local = 4.84701e-08, global = 1.99227e-19, cumulative = 2.71102e-19
[OGL LOG] init_preconditioner : 0 ms
[OGL LOG] solve : 60 ms
noneompGKOCG:  Solving for p, Initial residual = 0.68309, Final residual = 9.63912e-07, No Iterations 212
time step continuity errors : sum local = 5.18718e-08, global = -1.1227e-18, cumulative = -8.51595e-19
ExecutionTime = 5.46 s  ClockTime = 0 s

Time = 0.048

Courant Number mean: 0.758092 max: 3.79784
[OGL LOG] init_host_sparsity_pattern : 4 ms
[OGL LOG] matrix not stored update host matrix
[OGL LOG] update_host_mtx : 1 ms
[OGL LOG] matrix is not yet sorted, sorting host matrix
[OGL LOG] sort_host_mtx_sparsity_pattern : 2 ms
[OGL LOG] sort_host_mtx : 1 ms
[OGL LOG] init_preconditioner : 0 ms
[OGL LOG] solve : 20 ms
noneompGKOBiCGStab:  Solving for Ux, Initial residual = 0.201738, Final residual = 8.84444e-07, No Iterations 37
[OGL LOG] init_host_sparsity_pattern : 4 ms
[OGL LOG] matrix not stored update host matrix
[OGL LOG] update_host_mtx : 1 ms
[OGL LOG] matrix is not yet sorted, sorting host matrix
[OGL LOG] sort_host_mtx_sparsity_pattern : 2 ms
[OGL LOG] sort_host_mtx : 1 ms
[OGL LOG] init_preconditioner : 0 ms
[OGL LOG] solve : 22 ms
noneompGKOBiCGStab:  Solving for Uy, Initial residual = 0.531136, Final residual = 6.22462e-07, No Iterations 40
[OGL LOG] init_host_sparsity_pattern : 4 ms
[OGL LOG] matrix not stored update host matrix
[OGL LOG] update_host_mtx : 1 ms
[OGL LOG] matrix is not yet sorted, sorting host matrix
[OGL LOG] sort_host_mtx_sparsity_pattern : 2 ms
[OGL LOG] sort_host_mtx : 1 ms
[OGL LOG] init_preconditioner : 0 ms
[OGL LOG] solve : 21 ms
noneompGKOBiCGStab:  Solving for Uz, Initial residual = 0.358657, Final residual = 6.93116e-07, No Iterations 39
[OGL LOG] init_preconditioner : 0 ms
[OGL LOG] solve : 61 ms
noneompGKOCG:  Solving for p, Initial residual = 0.777054, Final residual = 9.17999e-07, No Iterations 215
time step continuity errors : sum local = 4.09312e-08, global = -1.05276e-18, cumulative = -1.90435e-18
[OGL LOG] init_preconditioner : 0 ms
[OGL LOG] solve : 60 ms
noneompGKOCG:  Solving for p, Initial residual = 0.74813, Final residual = 9.11165e-07, No Iterations 214
time step continuity errors : sum local = 3.88631e-08, global = 1.09753e-19, cumulative = -1.7946e-18
ExecutionTime = 8.78 s  ClockTime = 1 s

Time = 0.064

Courant Number mean: 0.685368 max: 3.20055
[OGL LOG] init_host_sparsity_pattern : 4 ms
[OGL LOG] matrix not stored update host matrix
[OGL LOG] update_host_mtx : 1 ms
[OGL LOG] matrix is not yet sorted, sorting host matrix
[OGL LOG] sort_host_mtx_sparsity_pattern : 2 ms
[OGL LOG] sort_host_mtx : 1 ms
[OGL LOG] init_preconditioner : 0 ms
[OGL LOG] solve : 20 ms
noneompGKOBiCGStab:  Solving for Ux, Initial residual = 0.152698, Final residual = 6.79236e-07, No Iterations 37
[OGL LOG] init_host_sparsity_pattern : 4 ms
[OGL LOG] matrix not stored update host matrix
[OGL LOG] update_host_mtx : 1 ms
[OGL LOG] matrix is not yet sorted, sorting host matrix
[OGL LOG] sort_host_mtx_sparsity_pattern : 2 ms
[OGL LOG] sort_host_mtx : 1 ms
[OGL LOG] init_preconditioner : 0 ms
[OGL LOG] solve : 22 ms
noneompGKOBiCGStab:  Solving for Uy, Initial residual = 0.317502, Final residual = 9.58885e-07, No Iterations 41
[OGL LOG] init_host_sparsity_pattern : 4 ms
[OGL LOG] matrix not stored update host matrix
[OGL LOG] update_host_mtx : 1 ms
[OGL LOG] matrix is not yet sorted, sorting host matrix
[OGL LOG] sort_host_mtx_sparsity_pattern : 2 ms
[OGL LOG] sort_host_mtx : 1 ms
[OGL LOG] init_preconditioner : 0 ms
[OGL LOG] solve : 19 ms
noneompGKOBiCGStab:  Solving for Uz, Initial residual = 0.699066, Final residual = 7.84287e-07, No Iterations 36
[OGL LOG] init_preconditioner : 0 ms
[OGL LOG] solve : 60 ms
noneompGKOCG:  Solving for p, Initial residual = 0.704093, Final residual = 9.99903e-07, No Iterations 214
time step continuity errors : sum local = 4.46294e-08, global = -1.17919e-19, cumulative = -1.91252e-18
[OGL LOG] init_preconditioner : 0 ms
[OGL LOG] solve : 61 ms
noneompGKOCG:  Solving for p, Initial residual = 0.618333, Final residual = 9.27659e-07, No Iterations 214
time step continuity errors : sum local = 4.32791e-08, global = 6.34034e-20, cumulative = -1.84912e-18
ExecutionTime = 12.06 s  ClockTime = 1 s

Time = 0.08

Courant Number mean: 0.783799 max: 3.73318
[OGL LOG] init_host_sparsity_pattern : 4 ms
[OGL LOG] matrix not stored update host matrix
[OGL LOG] update_host_mtx : 1 ms
[OGL LOG] matrix is not yet sorted, sorting host matrix
[OGL LOG] sort_host_mtx_sparsity_pattern : 2 ms
[OGL LOG] sort_host_mtx : 1 ms
[OGL LOG] init_preconditioner : 0 ms
[OGL LOG] solve : 21 ms
noneompGKOBiCGStab:  Solving for Ux, Initial residual = 0.12393, Final residual = 9.75159e-07, No Iterations 40
[OGL LOG] init_host_sparsity_pattern : 4 ms
[OGL LOG] matrix not stored update host matrix
[OGL LOG] update_host_mtx : 1 ms
[OGL LOG] matrix is not yet sorted, sorting host matrix
[OGL LOG] sort_host_mtx_sparsity_pattern : 2 ms
[OGL LOG] sort_host_mtx : 1 ms
[OGL LOG] init_preconditioner : 0 ms
[OGL LOG] solve : 20 ms
noneompGKOBiCGStab:  Solving for Uy, Initial residual = 0.296706, Final residual = 7.93677e-07, No Iterations 38
[OGL LOG] init_host_sparsity_pattern : 4 ms
[OGL LOG] matrix not stored update host matrix
[OGL LOG] update_host_mtx : 1 ms
[OGL LOG] matrix is not yet sorted, sorting host matrix
[OGL LOG] sort_host_mtx_sparsity_pattern : 2 ms
[OGL LOG] sort_host_mtx : 1 ms
[OGL LOG] init_preconditioner : 0 ms
[OGL LOG] solve : 20 ms
noneompGKOBiCGStab:  Solving for Uz, Initial residual = 0.452351, Final residual = 9.50621e-07, No Iterations 37
[OGL LOG] init_preconditioner : 0 ms
[OGL LOG] solve : 57 ms
noneompGKOCG:  Solving for p, Initial residual = 0.705375, Final residual = 8.87484e-07, No Iterations 215
time step continuity errors : sum local = 3.2862e-08, global = 2.54355e-19, cumulative = -1.59476e-18
[OGL LOG] init_preconditioner : 0 ms
[OGL LOG] solve : 56 ms
noneompGKOCG:  Solving for p, Initial residual = 0.668982, Final residual = 8.68158e-07, No Iterations 215
time step continuity errors : sum local = 3.10346e-08, global = -1.83245e-20, cumulative = -1.61309e-18
ExecutionTime = 15.24 s  ClockTime = 1 s

End

