/*---------------------------------------------------------------------------*\
  =========                 |
  \\      /  F ield         | OpenFOAM: The Open Source CFD Toolbox
   \\    /   O peration     | Website:  https://openfoam.org
    \\  /    A nd           | Version:  8
     \\/     M anipulation  |
\*---------------------------------------------------------------------------*/
Build  : 8-13d66902f78c
Exec   : icoFoam
Date   : Jul 04 2021
Time   : 10:41:12
Host   : "uc2n423.localdomain"
PID    : 2488996
I/O    : uncollated
Case   : /pfs/data5/home/kit/scc/nq7776/code/OGL_DATA/lidDrivenCavity3D/v0.1-136-g40fef35/f584ccac99/IntelXeonGold6230CPU@2.10GHz/Test_2021-07-04-08:58:23/75/p-U-BiCGStab-GKO-BJ-omp/lidDrivenCavity3D
nProcs : 1
sigFpe : Enabling floating point exception trapping (FOAM_SIGFPE).
fileModificationChecking : Monitoring run-time modified files using timeStampMaster (fileModificationSkew 10)
allowSystemOperations : Allowing user-supplied system call operations

// * * * * * * * * * * * * * * * * * * * * * * * * * * * * * * * * * * * * * //
Create time

Create mesh for time = 0

Reading transportProperties

Reading field p

Reading field U

Reading/calculating face flux field phi


Starting time loop

Time = 0.00133333

Courant Number mean: 0 max: 0
[OGL LOG] init_host_sparsity_pattern : 121 ms
[OGL LOG] matrix not stored update host matrix
[OGL LOG] update_host_mtx : 61 ms
[OGL LOG] matrix is not yet sorted, compute sorting idxs
[OGL LOG] compute_sort : 3659 ms
[OGL LOG] matrix is not yet sorted, sorting host matrix
[OGL LOG] sort_host_mtx_sparsity_pattern : 78 ms
[OGL LOG] sort_host_mtx : 53 ms
[OGL LOG] init_preconditioner : 12 ms
[OGL LOG] solve : 647 ms
BJompGKOBiCGStab:  Solving for Ux, Initial residual = 1, Final residual = 8.57454e-07, No Iterations 40
[OGL LOG] init_host_sparsity_pattern : 117 ms
[OGL LOG] matrix not stored update host matrix
[OGL LOG] update_host_mtx : 62 ms
[OGL LOG] matrix is not yet sorted, sorting host matrix
[OGL LOG] sort_host_mtx_sparsity_pattern : 80 ms
[OGL LOG] sort_host_mtx : 43 ms
[OGL LOG] init_preconditioner : 11 ms
[OGL LOG] solve : 16 ms
BJompGKOBiCGStab:  Solving for Uy, Initial residual = 0, Final residual = 0, No Iterations 0
[OGL LOG] init_host_sparsity_pattern : 112 ms
[OGL LOG] matrix not stored update host matrix
[OGL LOG] update_host_mtx : 53 ms
[OGL LOG] matrix is not yet sorted, sorting host matrix
[OGL LOG] sort_host_mtx_sparsity_pattern : 77 ms
[OGL LOG] sort_host_mtx : 48 ms
[OGL LOG] init_preconditioner : 11 ms
[OGL LOG] solve : 16 ms
BJompGKOBiCGStab:  Solving for Uz, Initial residual = 0, Final residual = 0, No Iterations 0
[OGL LOG] init_host_sparsity_pattern : 117 ms
[OGL LOG] matrix not stored update host matrix
[OGL LOG] update_host_mtx : 67 ms
[OGL LOG] matrix is not yet sorted, sorting host matrix
[OGL LOG] sort_host_mtx_sparsity_pattern : 83 ms
[OGL LOG] sort_host_mtx : 43 ms
[OGL LOG] init_preconditioner : 14 ms
[OGL LOG] solve : 5771 ms
BJompGKOBiCGStab:  Solving for p, Initial residual = 1, Final residual = 8.79525e-07, No Iterations 436
time step continuity errors : sum local = 1.3376e-09, global = 1.43223e-21, cumulative = 1.43223e-21
[OGL LOG] init_preconditioner : 0 ms
[OGL LOG] solve : 5170 ms
BJompGKOBiCGStab:  Solving for p, Initial residual = 0.759327, Final residual = 9.31e-07, No Iterations 427
time step continuity errors : sum local = 1.03926e-06, global = 9.49215e-21, cumulative = 1.09244e-20
ExecutionTime = 380.65 s  ClockTime = 19 s

Time = 0.00266667

Courant Number mean: 0.0631771 max: 0.775367
[OGL LOG] init_host_sparsity_pattern : 113 ms
[OGL LOG] matrix not stored update host matrix
[OGL LOG] update_host_mtx : 70 ms
[OGL LOG] matrix is not yet sorted, sorting host matrix
[OGL LOG] sort_host_mtx_sparsity_pattern : 81 ms
[OGL LOG] sort_host_mtx : 44 ms
[OGL LOG] init_preconditioner : 0 ms
[OGL LOG] solve : 425 ms
BJompGKOBiCGStab:  Solving for Ux, Initial residual = 0.183058, Final residual = 5.37343e-07, No Iterations 30
[OGL LOG] init_host_sparsity_pattern : 122 ms
[OGL LOG] matrix not stored update host matrix
[OGL LOG] update_host_mtx : 61 ms
[OGL LOG] matrix is not yet sorted, sorting host matrix
[OGL LOG] sort_host_mtx_sparsity_pattern : 73 ms
[OGL LOG] sort_host_mtx : 43 ms
[OGL LOG] init_preconditioner : 0 ms
[OGL LOG] solve : 514 ms
BJompGKOBiCGStab:  Solving for Uy, Initial residual = 0.619594, Final residual = 9.6061e-07, No Iterations 39
[OGL LOG] init_host_sparsity_pattern : 116 ms
[OGL LOG] matrix not stored update host matrix
[OGL LOG] update_host_mtx : 54 ms
[OGL LOG] matrix is not yet sorted, sorting host matrix
[OGL LOG] sort_host_mtx_sparsity_pattern : 83 ms
[OGL LOG] sort_host_mtx : 44 ms
[OGL LOG] init_preconditioner : 0 ms
[OGL LOG] solve : 520 ms
BJompGKOBiCGStab:  Solving for Uz, Initial residual = 0.604936, Final residual = 8.44824e-07, No Iterations 38
[OGL LOG] init_preconditioner : 0 ms
[OGL LOG] solve : 5159 ms
BJompGKOBiCGStab:  Solving for p, Initial residual = 0.749116, Final residual = 6.76446e-07, No Iterations 399
time step continuity errors : sum local = 3.43051e-08, global = 1.61124e-20, cumulative = 2.70368e-20
[OGL LOG] init_preconditioner : 0 ms
[OGL LOG] solve : 4785 ms
BJompGKOBiCGStab:  Solving for p, Initial residual = 0.683865, Final residual = 7.14284e-07, No Iterations 392
time step continuity errors : sum local = 1.63139e-07, global = -2.35389e-21, cumulative = 2.46829e-20
ExecutionTime = 746.12 s  ClockTime = 32 s

Time = 0.004

Courant Number mean: 0.0951474 max: 0.9171
[OGL LOG] init_host_sparsity_pattern : 113 ms
[OGL LOG] matrix not stored update host matrix
[OGL LOG] update_host_mtx : 56 ms
[OGL LOG] matrix is not yet sorted, sorting host matrix
[OGL LOG] sort_host_mtx_sparsity_pattern : 81 ms
[OGL LOG] sort_host_mtx : 44 ms
[OGL LOG] init_preconditioner : 0 ms
[OGL LOG] solve : 334 ms
BJompGKOBiCGStab:  Solving for Ux, Initial residual = 0.101965, Final residual = 9.62662e-07, No Iterations 26
[OGL LOG] init_host_sparsity_pattern : 114 ms
[OGL LOG] matrix not stored update host matrix
[OGL LOG] update_host_mtx : 53 ms
[OGL LOG] matrix is not yet sorted, sorting host matrix
[OGL LOG] sort_host_mtx_sparsity_pattern : 83 ms
[OGL LOG] sort_host_mtx : 43 ms
[OGL LOG] init_preconditioner : 0 ms
[OGL LOG] solve : 465 ms
BJompGKOBiCGStab:  Solving for Uy, Initial residual = 0.335452, Final residual = 9.35441e-07, No Iterations 37
[OGL LOG] init_host_sparsity_pattern : 112 ms
[OGL LOG] matrix not stored update host matrix
[OGL LOG] update_host_mtx : 53 ms
[OGL LOG] matrix is not yet sorted, sorting host matrix
[OGL LOG] sort_host_mtx_sparsity_pattern : 73 ms
[OGL LOG] sort_host_mtx : 44 ms
[OGL LOG] init_preconditioner : 0 ms
[OGL LOG] solve : 525 ms
BJompGKOBiCGStab:  Solving for Uz, Initial residual = 0.920972, Final residual = 9.70679e-07, No Iterations 42
[OGL LOG] init_preconditioner : 0 ms
[OGL LOG] solve : 4675 ms
BJompGKOBiCGStab:  Solving for p, Initial residual = 0.754742, Final residual = 6.99423e-07, No Iterations 403
time step continuity errors : sum local = 7.3881e-08, global = -1.53556e-20, cumulative = 9.32731e-21
[OGL LOG] init_preconditioner : 0 ms
[OGL LOG] solve : 4699 ms
BJompGKOBiCGStab:  Solving for p, Initial residual = 0.717044, Final residual = 9.89869e-07, No Iterations 398
time step continuity errors : sum local = 3.23253e-09, global = 1.32033e-20, cumulative = 2.25306e-20
ExecutionTime = 1090.07 s  ClockTime = 44 s

Time = 0.00533333

Courant Number mean: 0.109257 max: 0.913437
[OGL LOG] init_host_sparsity_pattern : 112 ms
[OGL LOG] matrix not stored update host matrix
[OGL LOG] update_host_mtx : 59 ms
[OGL LOG] matrix is not yet sorted, sorting host matrix
[OGL LOG] sort_host_mtx_sparsity_pattern : 91 ms
[OGL LOG] sort_host_mtx : 43 ms
[OGL LOG] init_preconditioner : 0 ms
[OGL LOG] solve : 460 ms
BJompGKOBiCGStab:  Solving for Ux, Initial residual = 0.0446939, Final residual = 9.49267e-07, No Iterations 27
[OGL LOG] init_host_sparsity_pattern : 112 ms
[OGL LOG] matrix not stored update host matrix
[OGL LOG] update_host_mtx : 54 ms
[OGL LOG] matrix is not yet sorted, sorting host matrix
[OGL LOG] sort_host_mtx_sparsity_pattern : 74 ms
[OGL LOG] sort_host_mtx : 44 ms
[OGL LOG] init_preconditioner : 0 ms
[OGL LOG] solve : 617 ms
BJompGKOBiCGStab:  Solving for Uy, Initial residual = 0.19758, Final residual = 9.40233e-07, No Iterations 39
[OGL LOG] init_host_sparsity_pattern : 117 ms
[OGL LOG] matrix not stored update host matrix
[OGL LOG] update_host_mtx : 63 ms
[OGL LOG] matrix is not yet sorted, sorting host matrix
[OGL LOG] sort_host_mtx_sparsity_pattern : 75 ms
[OGL LOG] sort_host_mtx : 44 ms
[OGL LOG] init_preconditioner : 0 ms
[OGL LOG] solve : 624 ms
BJompGKOBiCGStab:  Solving for Uz, Initial residual = 0.732964, Final residual = 7.10484e-07, No Iterations 40
[OGL LOG] init_preconditioner : 0 ms
[OGL LOG] solve : 4965 ms
BJompGKOBiCGStab:  Solving for p, Initial residual = 0.617361, Final residual = 8.92487e-07, No Iterations 404
time step continuity errors : sum local = 1.84752e-09, global = -1.67966e-20, cumulative = 5.73402e-21
[OGL LOG] init_preconditioner : 0 ms
[OGL LOG] solve : 4706 ms
BJompGKOBiCGStab:  Solving for p, Initial residual = 0.554743, Final residual = 9.83966e-07, No Iterations 397
time step continuity errors : sum local = 1.24913e-09, global = -1.83476e-20, cumulative = -1.26136e-20
ExecutionTime = 1455.42 s  ClockTime = 57 s

Time = 0.00666667

Courant Number mean: 0.122085 max: 0.929084
[OGL LOG] init_host_sparsity_pattern : 112 ms
[OGL LOG] matrix not stored update host matrix
[OGL LOG] update_host_mtx : 54 ms
[OGL LOG] matrix is not yet sorted, sorting host matrix
[OGL LOG] sort_host_mtx_sparsity_pattern : 76 ms
[OGL LOG] sort_host_mtx : 43 ms
[OGL LOG] init_preconditioner : 0 ms
[OGL LOG] solve : 416 ms
BJompGKOBiCGStab:  Solving for Ux, Initial residual = 0.0319059, Final residual = 8.67676e-07, No Iterations 25
[OGL LOG] init_host_sparsity_pattern : 112 ms
[OGL LOG] matrix not stored update host matrix
[OGL LOG] update_host_mtx : 53 ms
[OGL LOG] matrix is not yet sorted, sorting host matrix
[OGL LOG] sort_host_mtx_sparsity_pattern : 73 ms
[OGL LOG] sort_host_mtx : 43 ms
[OGL LOG] init_preconditioner : 0 ms
[OGL LOG] solve : 553 ms
BJompGKOBiCGStab:  Solving for Uy, Initial residual = 0.0804716, Final residual = 9.86905e-07, No Iterations 35
[OGL LOG] init_host_sparsity_pattern : 112 ms
[OGL LOG] matrix not stored update host matrix
[OGL LOG] update_host_mtx : 53 ms
[OGL LOG] matrix is not yet sorted, sorting host matrix
[OGL LOG] sort_host_mtx_sparsity_pattern : 73 ms
[OGL LOG] sort_host_mtx : 43 ms
[OGL LOG] init_preconditioner : 0 ms
[OGL LOG] solve : 488 ms
BJompGKOBiCGStab:  Solving for Uz, Initial residual = 0.513718, Final residual = 6.38906e-07, No Iterations 36
[OGL LOG] init_preconditioner : 0 ms
[OGL LOG] solve : 4574 ms
BJompGKOBiCGStab:  Solving for p, Initial residual = 0.592012, Final residual = 7.90196e-07, No Iterations 386
time step continuity errors : sum local = 1.71034e-08, global = -9.96965e-21, cumulative = -2.25832e-20
[OGL LOG] init_preconditioner : 0 ms
[OGL LOG] solve : 5541 ms
BJompGKOBiCGStab:  Solving for p, Initial residual = 0.543141, Final residual = 9.94615e-07, No Iterations 466
time step continuity errors : sum local = 8.22478e-10, global = 9.64303e-21, cumulative = -1.29402e-20
ExecutionTime = 1826.99 s  ClockTime = 70 s

End

