/*---------------------------------------------------------------------------*\
  =========                 |
  \\      /  F ield         | OpenFOAM: The Open Source CFD Toolbox
   \\    /   O peration     | Website:  https://openfoam.org
    \\  /    A nd           | Version:  8
     \\/     M anipulation  |
\*---------------------------------------------------------------------------*/
Build  : 8-13d66902f78c
Exec   : icoFoam
Date   : Jul 04 2021
Time   : 09:02:05
Host   : "uc2n404.localdomain"
PID    : 10872
I/O    : uncollated
Case   : /pfs/data5/home/kit/scc/nq7776/code/OGL_DATA/lidDrivenCavity3D/v0.1-136-g40fef35/f584ccac99/IntelXeonGold6230CPU@2.10GHz/Test_2021-07-04-09:01:57/25/p-CG-OF-none-reference/lidDrivenCavity3D
nProcs : 1
sigFpe : Enabling floating point exception trapping (FOAM_SIGFPE).
fileModificationChecking : Monitoring run-time modified files using timeStampMaster (fileModificationSkew 10)
allowSystemOperations : Allowing user-supplied system call operations

// * * * * * * * * * * * * * * * * * * * * * * * * * * * * * * * * * * * * * //
Create time

Create mesh for time = 0

Reading transportProperties

Reading field p

Reading field U

Reading/calculating face flux field phi


Starting time loop

Time = 0.004

Courant Number mean: 0 max: 0
nonePBiCGStab:  Solving for Ux, Initial residual = 1, Final residual = 0.0337517, No Iterations 5
nonePBiCGStab:  Solving for Uy, Initial residual = 0, Final residual = 0, No Iterations 0
nonePBiCGStab:  Solving for Uz, Initial residual = 0, Final residual = 0, No Iterations 0
nonePCG:  Solving for p, Initial residual = 1, Final residual = 9.86292e-07, No Iterations 219
time step continuity errors : sum local = 3.91448e-09, global = -3.26346e-20, cumulative = -3.26346e-20
nonePCG:  Solving for p, Initial residual = 0.622285, Final residual = 9.12845e-07, No Iterations 215
time step continuity errors : sum local = 5.30076e-09, global = 5.21488e-20, cumulative = 1.95142e-20
ExecutionTime = 0.17 s  ClockTime = 0 s

Time = 0.008

Courant Number mean: 0.084228 max: 0.621061
nonePBiCGStab:  Solving for Ux, Initial residual = 0.149589, Final residual = 0.00942683, No Iterations 5
nonePBiCGStab:  Solving for Uy, Initial residual = 0.281195, Final residual = 0.0142199, No Iterations 5
nonePBiCGStab:  Solving for Uz, Initial residual = 0.933286, Final residual = 0.0511082, No Iterations 5
nonePCG:  Solving for p, Initial residual = 0.518045, Final residual = 9.1478e-07, No Iterations 212
time step continuity errors : sum local = 5.36068e-09, global = 4.2698e-20, cumulative = 6.22122e-20
nonePCG:  Solving for p, Initial residual = 0.415898, Final residual = 9.91887e-07, No Iterations 210
time step continuity errors : sum local = 6.05531e-09, global = 1.40867e-19, cumulative = 2.03079e-19
ExecutionTime = 0.24 s  ClockTime = 0 s

Time = 0.012

Courant Number mean: 0.124051 max: 0.792234
nonePBiCGStab:  Solving for Ux, Initial residual = 0.0425001, Final residual = 0.00204637, No Iterations 5
nonePBiCGStab:  Solving for Uy, Initial residual = 0.0761453, Final residual = 0.00263683, No Iterations 5
nonePBiCGStab:  Solving for Uz, Initial residual = 0.142708, Final residual = 0.00668453, No Iterations 5
nonePCG:  Solving for p, Initial residual = 0.279188, Final residual = 9.57229e-07, No Iterations 208
time step continuity errors : sum local = 4.10442e-09, global = 8.90618e-21, cumulative = 2.11985e-19
nonePCG:  Solving for p, Initial residual = 0.224051, Final residual = 9.55798e-07, No Iterations 206
time step continuity errors : sum local = 4.016e-09, global = 6.72828e-20, cumulative = 2.79268e-19
ExecutionTime = 0.31 s  ClockTime = 0 s

Time = 0.016

Courant Number mean: 0.142529 max: 0.824384
nonePBiCGStab:  Solving for Ux, Initial residual = 0.0219032, Final residual = 0.000752461, No Iterations 5
nonePBiCGStab:  Solving for Uy, Initial residual = 0.0474704, Final residual = 0.000975032, No Iterations 5
nonePBiCGStab:  Solving for Uz, Initial residual = 0.0926543, Final residual = 0.00322905, No Iterations 5
nonePCG:  Solving for p, Initial residual = 0.138549, Final residual = 9.98052e-07, No Iterations 200
time step continuity errors : sum local = 4.24081e-09, global = 6.22687e-20, cumulative = 3.41537e-19
nonePCG:  Solving for p, Initial residual = 0.106559, Final residual = 8.91598e-07, No Iterations 199
time step continuity errors : sum local = 3.84013e-09, global = 2.74371e-20, cumulative = 3.68974e-19
ExecutionTime = 0.37 s  ClockTime = 0 s

Time = 0.02

Courant Number mean: 0.154857 max: 0.843613
nonePBiCGStab:  Solving for Ux, Initial residual = 0.0136635, Final residual = 0.000405684, No Iterations 5
nonePBiCGStab:  Solving for Uy, Initial residual = 0.0288036, Final residual = 0.00072801, No Iterations 5
nonePBiCGStab:  Solving for Uz, Initial residual = 0.0551893, Final residual = 0.00171373, No Iterations 5
nonePCG:  Solving for p, Initial residual = 0.065414, Final residual = 8.42854e-07, No Iterations 198
time step continuity errors : sum local = 3.44565e-09, global = 9.41848e-20, cumulative = 4.63159e-19
nonePCG:  Solving for p, Initial residual = 0.0510737, Final residual = 9.19912e-07, No Iterations 196
time step continuity errors : sum local = 3.76032e-09, global = 1.11214e-19, cumulative = 5.74373e-19
ExecutionTime = 0.44 s  ClockTime = 0 s

End

