/*---------------------------------------------------------------------------*\
  =========                 |
  \\      /  F ield         | OpenFOAM: The Open Source CFD Toolbox
   \\    /   O peration     | Website:  https://openfoam.org
    \\  /    A nd           | Version:  8
     \\/     M anipulation  |
\*---------------------------------------------------------------------------*/
Build  : 8-13d66902f78c
Exec   : icoFoam
Date   : Jul 04 2021
Time   : 09:44:12
Host   : "uc2n384.localdomain"
PID    : 2630232
I/O    : uncollated
Case   : /pfs/data5/home/kit/scc/nq7776/code/OGL_DATA/lidDrivenCavity3D/v0.1-136-g40fef35/f584ccac99/IntelXeonGold6230CPU@2.10GHz/Test_2021-07-04-08:57:08/75/p-U-CG-GKO-BJ-omp/lidDrivenCavity3D
nProcs : 1
sigFpe : Enabling floating point exception trapping (FOAM_SIGFPE).
fileModificationChecking : Monitoring run-time modified files using timeStampMaster (fileModificationSkew 10)
allowSystemOperations : Allowing user-supplied system call operations

// * * * * * * * * * * * * * * * * * * * * * * * * * * * * * * * * * * * * * //
Create time

Create mesh for time = 0

Reading transportProperties

Reading field p

Reading field U

Reading/calculating face flux field phi


Starting time loop

Time = 0.00133333

Courant Number mean: 0 max: 0
[OGL LOG] init_host_sparsity_pattern : 120 ms
[OGL LOG] matrix not stored update host matrix
[OGL LOG] update_host_mtx : 61 ms
[OGL LOG] matrix is not yet sorted, compute sorting idxs
[OGL LOG] compute_sort : 3654 ms
[OGL LOG] matrix is not yet sorted, sorting host matrix
[OGL LOG] sort_host_mtx_sparsity_pattern : 77 ms
[OGL LOG] sort_host_mtx : 51 ms
[OGL LOG] init_preconditioner : 61 ms
[OGL LOG] solve : 1751 ms
BJompGKOBiCGStab:  Solving for Ux, Initial residual = 1, Final residual = 8.57454e-07, No Iterations 40
[OGL LOG] init_host_sparsity_pattern : 124 ms
[OGL LOG] matrix not stored update host matrix
[OGL LOG] update_host_mtx : 75 ms
[OGL LOG] matrix is not yet sorted, sorting host matrix
[OGL LOG] sort_host_mtx_sparsity_pattern : 80 ms
[OGL LOG] sort_host_mtx : 43 ms
[OGL LOG] init_preconditioner : 67 ms
[OGL LOG] solve : 34 ms
BJompGKOBiCGStab:  Solving for Uy, Initial residual = 0, Final residual = 0, No Iterations 0
[OGL LOG] init_host_sparsity_pattern : 112 ms
[OGL LOG] matrix not stored update host matrix
[OGL LOG] update_host_mtx : 53 ms
[OGL LOG] matrix is not yet sorted, sorting host matrix
[OGL LOG] sort_host_mtx_sparsity_pattern : 92 ms
[OGL LOG] sort_host_mtx : 49 ms
[OGL LOG] init_preconditioner : 67 ms
[OGL LOG] solve : 33 ms
BJompGKOBiCGStab:  Solving for Uz, Initial residual = 0, Final residual = 0, No Iterations 0
[OGL LOG] init_host_sparsity_pattern : 111 ms
[OGL LOG] matrix not stored update host matrix
[OGL LOG] update_host_mtx : 62 ms
[OGL LOG] matrix is not yet sorted, sorting host matrix
[OGL LOG] sort_host_mtx_sparsity_pattern : 80 ms
[OGL LOG] sort_host_mtx : 43 ms
[OGL LOG] init_preconditioner : 66 ms
 CG create  precond 
[OGL LOG] solve : 12263 ms
BJompGKOCG:  Solving for p, Initial residual = 1, Final residual = 9.42284e-07, No Iterations 578
time step continuity errors : sum local = 8.60698e-10, global = -8.69e-22, cumulative = -8.69e-22
[OGL LOG] init_preconditioner : 0 ms
 CG create  precond 
[OGL LOG] solve : 12062 ms
BJompGKOCG:  Solving for p, Initial residual = 0.759329, Final residual = 9.81626e-07, No Iterations 571
time step continuity errors : sum local = 1.14781e-09, global = 2.1662e-21, cumulative = 1.2972e-21
ExecutionTime = 59.92 s  ClockTime = 33 s

Time = 0.00266667

Courant Number mean: 0.0631768 max: 0.775367
[OGL LOG] init_host_sparsity_pattern : 112 ms
[OGL LOG] matrix not stored update host matrix
[OGL LOG] update_host_mtx : 58 ms
[OGL LOG] matrix is not yet sorted, sorting host matrix
[OGL LOG] sort_host_mtx_sparsity_pattern : 79 ms
[OGL LOG] sort_host_mtx : 43 ms
[OGL LOG] init_preconditioner : 0 ms
[OGL LOG] solve : 1263 ms
BJompGKOBiCGStab:  Solving for Ux, Initial residual = 0.183034, Final residual = 7.80716e-07, No Iterations 28
[OGL LOG] init_host_sparsity_pattern : 113 ms
[OGL LOG] matrix not stored update host matrix
[OGL LOG] update_host_mtx : 53 ms
[OGL LOG] matrix is not yet sorted, sorting host matrix
[OGL LOG] sort_host_mtx_sparsity_pattern : 72 ms
[OGL LOG] sort_host_mtx : 43 ms
[OGL LOG] init_preconditioner : 0 ms
[OGL LOG] solve : 1676 ms
BJompGKOBiCGStab:  Solving for Uy, Initial residual = 0.619629, Final residual = 9.4185e-07, No Iterations 39
[OGL LOG] init_host_sparsity_pattern : 117 ms
[OGL LOG] matrix not stored update host matrix
[OGL LOG] update_host_mtx : 60 ms
[OGL LOG] matrix is not yet sorted, sorting host matrix
[OGL LOG] sort_host_mtx_sparsity_pattern : 73 ms
[OGL LOG] sort_host_mtx : 43 ms
[OGL LOG] init_preconditioner : 0 ms
[OGL LOG] solve : 1575 ms
BJompGKOBiCGStab:  Solving for Uz, Initial residual = 0.604718, Final residual = 8.02962e-07, No Iterations 37
[OGL LOG] init_preconditioner : 0 ms
 CG create  precond 
[OGL LOG] solve : 12256 ms
BJompGKOCG:  Solving for p, Initial residual = 0.749131, Final residual = 9.60224e-07, No Iterations 573
time step continuity errors : sum local = 1.36719e-09, global = -2.33092e-21, cumulative = -1.03372e-21
[OGL LOG] init_preconditioner : 0 ms
 CG create  precond 
[OGL LOG] solve : 12114 ms
BJompGKOCG:  Solving for p, Initial residual = 0.683908, Final residual = 9.38557e-07, No Iterations 572
time step continuity errors : sum local = 1.36578e-09, global = -8.25111e-22, cumulative = -1.85883e-21
ExecutionTime = 118.95 s  ClockTime = 64 s

Time = 0.004

Courant Number mean: 0.095146 max: 0.917097
[OGL LOG] init_host_sparsity_pattern : 112 ms
[OGL LOG] matrix not stored update host matrix
[OGL LOG] update_host_mtx : 57 ms
[OGL LOG] matrix is not yet sorted, sorting host matrix
[OGL LOG] sort_host_mtx_sparsity_pattern : 79 ms
[OGL LOG] sort_host_mtx : 43 ms
[OGL LOG] init_preconditioner : 0 ms
[OGL LOG] solve : 1071 ms
BJompGKOBiCGStab:  Solving for Ux, Initial residual = 0.101944, Final residual = 8.39999e-07, No Iterations 25
[OGL LOG] init_host_sparsity_pattern : 113 ms
[OGL LOG] matrix not stored update host matrix
[OGL LOG] update_host_mtx : 53 ms
[OGL LOG] matrix is not yet sorted, sorting host matrix
[OGL LOG] sort_host_mtx_sparsity_pattern : 72 ms
[OGL LOG] sort_host_mtx : 43 ms
[OGL LOG] init_preconditioner : 0 ms
[OGL LOG] solve : 1629 ms
BJompGKOBiCGStab:  Solving for Uy, Initial residual = 0.335433, Final residual = 3.24106e-07, No Iterations 39
[OGL LOG] init_host_sparsity_pattern : 112 ms
[OGL LOG] matrix not stored update host matrix
[OGL LOG] update_host_mtx : 53 ms
[OGL LOG] matrix is not yet sorted, sorting host matrix
[OGL LOG] sort_host_mtx_sparsity_pattern : 72 ms
[OGL LOG] sort_host_mtx : 43 ms
[OGL LOG] init_preconditioner : 0 ms
[OGL LOG] solve : 1669 ms
BJompGKOBiCGStab:  Solving for Uz, Initial residual = 0.920729, Final residual = 4.30916e-07, No Iterations 40
[OGL LOG] init_preconditioner : 0 ms
 CG create  precond 
[OGL LOG] solve : 13091 ms
BJompGKOCG:  Solving for p, Initial residual = 0.754752, Final residual = 9.84794e-07, No Iterations 617
time step continuity errors : sum local = 1.15766e-09, global = 5.26943e-21, cumulative = 3.4106e-21
[OGL LOG] init_preconditioner : 0 ms
 CG create  precond 
[OGL LOG] solve : 13022 ms
BJompGKOCG:  Solving for p, Initial residual = 0.717018, Final residual = 9.73752e-07, No Iterations 617
time step continuity errors : sum local = 1.11077e-09, global = -2.73949e-21, cumulative = 6.71107e-22
ExecutionTime = 181.15 s  ClockTime = 95 s

Time = 0.00533333

Courant Number mean: 0.109256 max: 0.913435
[OGL LOG] init_host_sparsity_pattern : 111 ms
[OGL LOG] matrix not stored update host matrix
[OGL LOG] update_host_mtx : 57 ms
[OGL LOG] matrix is not yet sorted, sorting host matrix
[OGL LOG] sort_host_mtx_sparsity_pattern : 79 ms
[OGL LOG] sort_host_mtx : 43 ms
[OGL LOG] init_preconditioner : 0 ms
[OGL LOG] solve : 1134 ms
BJompGKOBiCGStab:  Solving for Ux, Initial residual = 0.0446964, Final residual = 6.59679e-07, No Iterations 27
[OGL LOG] init_host_sparsity_pattern : 112 ms
[OGL LOG] matrix not stored update host matrix
[OGL LOG] update_host_mtx : 53 ms
[OGL LOG] matrix is not yet sorted, sorting host matrix
[OGL LOG] sort_host_mtx_sparsity_pattern : 72 ms
[OGL LOG] sort_host_mtx : 43 ms
[OGL LOG] init_preconditioner : 0 ms
[OGL LOG] solve : 1565 ms
BJompGKOBiCGStab:  Solving for Uy, Initial residual = 0.197564, Final residual = 9.72796e-07, No Iterations 37
[OGL LOG] init_host_sparsity_pattern : 112 ms
[OGL LOG] matrix not stored update host matrix
[OGL LOG] update_host_mtx : 53 ms
[OGL LOG] matrix is not yet sorted, sorting host matrix
[OGL LOG] sort_host_mtx_sparsity_pattern : 72 ms
[OGL LOG] sort_host_mtx : 43 ms
[OGL LOG] init_preconditioner : 0 ms
[OGL LOG] solve : 1421 ms
BJompGKOBiCGStab:  Solving for Uz, Initial residual = 0.732488, Final residual = 8.28117e-07, No Iterations 34
[OGL LOG] init_preconditioner : 0 ms
 CG create  precond 
[OGL LOG] solve : 13189 ms
BJompGKOCG:  Solving for p, Initial residual = 0.617354, Final residual = 9.60683e-07, No Iterations 622
time step continuity errors : sum local = 1.00089e-09, global = 7.14153e-21, cumulative = 7.81263e-21
[OGL LOG] init_preconditioner : 0 ms
 CG create  precond 
[OGL LOG] solve : 13128 ms
BJompGKOCG:  Solving for p, Initial residual = 0.554748, Final residual = 9.75424e-07, No Iterations 618
time step continuity errors : sum local = 1.03079e-09, global = 6.95429e-21, cumulative = 1.47669e-20
ExecutionTime = 243.2 s  ClockTime = 127 s

Time = 0.00666667

Courant Number mean: 0.122084 max: 0.929082
[OGL LOG] init_host_sparsity_pattern : 112 ms
[OGL LOG] matrix not stored update host matrix
[OGL LOG] update_host_mtx : 54 ms
[OGL LOG] matrix is not yet sorted, sorting host matrix
[OGL LOG] sort_host_mtx_sparsity_pattern : 79 ms
[OGL LOG] sort_host_mtx : 43 ms
[OGL LOG] init_preconditioner : 0 ms
[OGL LOG] solve : 1098 ms
BJompGKOBiCGStab:  Solving for Ux, Initial residual = 0.0319073, Final residual = 4.06194e-07, No Iterations 26
[OGL LOG] init_host_sparsity_pattern : 112 ms
[OGL LOG] matrix not stored update host matrix
[OGL LOG] update_host_mtx : 53 ms
[OGL LOG] matrix is not yet sorted, sorting host matrix
[OGL LOG] sort_host_mtx_sparsity_pattern : 72 ms
[OGL LOG] sort_host_mtx : 43 ms
[OGL LOG] init_preconditioner : 0 ms
[OGL LOG] solve : 1496 ms
BJompGKOBiCGStab:  Solving for Uy, Initial residual = 0.0804625, Final residual = 6.72046e-07, No Iterations 35
[OGL LOG] init_host_sparsity_pattern : 116 ms
[OGL LOG] matrix not stored update host matrix
[OGL LOG] update_host_mtx : 55 ms
[OGL LOG] matrix is not yet sorted, sorting host matrix
[OGL LOG] sort_host_mtx_sparsity_pattern : 72 ms
[OGL LOG] sort_host_mtx : 43 ms
[OGL LOG] init_preconditioner : 0 ms
[OGL LOG] solve : 1615 ms
BJompGKOBiCGStab:  Solving for Uz, Initial residual = 0.513469, Final residual = 9.11242e-07, No Iterations 38
[OGL LOG] init_preconditioner : 0 ms
 CG create  precond 
[OGL LOG] solve : 12675 ms
BJompGKOCG:  Solving for p, Initial residual = 0.591991, Final residual = 9.72067e-07, No Iterations 601
time step continuity errors : sum local = 8.13568e-10, global = 8.53785e-22, cumulative = 1.56207e-20
[OGL LOG] init_preconditioner : 0 ms
 CG create  precond 
[OGL LOG] solve : 12651 ms
BJompGKOCG:  Solving for p, Initial residual = 0.543117, Final residual = 9.51618e-07, No Iterations 600
time step continuity errors : sum local = 7.86585e-10, global = 3.93274e-21, cumulative = 1.95534e-20
ExecutionTime = 303.47 s  ClockTime = 158 s

End

