/*---------------------------------------------------------------------------*\
  =========                 |
  \\      /  F ield         | OpenFOAM: The Open Source CFD Toolbox
   \\    /   O peration     | Website:  https://openfoam.org
    \\  /    A nd           | Version:  8
     \\/     M anipulation  |
\*---------------------------------------------------------------------------*/
Build  : 8-13d66902f78c
Exec   : icoFoam
Date   : Jul 04 2021
Time   : 08:37:51
Host   : "uc2n415.localdomain"
PID    : 2602082
I/O    : uncollated
Case   : /pfs/data5/home/kit/scc/nq7776/code/OGL_DATA/lidDrivenCavity3D/v0.1-136-g40fef35/f584ccac99/IntelXeonGold6230CPU@2.10GHz/Test_2021-07-04-08:36:30/25/p-U-BiCGStab-GKO-none-omp/lidDrivenCavity3D
nProcs : 1
sigFpe : Enabling floating point exception trapping (FOAM_SIGFPE).
fileModificationChecking : Monitoring run-time modified files using timeStampMaster (fileModificationSkew 10)
allowSystemOperations : Allowing user-supplied system call operations

// * * * * * * * * * * * * * * * * * * * * * * * * * * * * * * * * * * * * * //
Create time

Create mesh for time = 0

Reading transportProperties

Reading field p

Reading field U

Reading/calculating face flux field phi


Starting time loop

Time = 0.016

Courant Number mean: 0 max: 0
[OGL LOG] init_host_sparsity_pattern : 4 ms
[OGL LOG] matrix not stored update host matrix
[OGL LOG] update_host_mtx : 2 ms
[OGL LOG] matrix is not yet sorted, compute sorting idxs
[OGL LOG] compute_sort : 105 ms
[OGL LOG] matrix is not yet sorted, sorting host matrix
[OGL LOG] sort_host_mtx_sparsity_pattern : 2 ms
[OGL LOG] sort_host_mtx : 1 ms
[OGL LOG] init_preconditioner : 0 ms
[OGL LOG] solve : 27 ms
noneompGKOBiCGStab:  Solving for Ux, Initial residual = 1, Final residual = 9.17551e-07, No Iterations 42
[OGL LOG] init_host_sparsity_pattern : 4 ms
[OGL LOG] matrix not stored update host matrix
[OGL LOG] update_host_mtx : 2 ms
[OGL LOG] matrix is not yet sorted, sorting host matrix
[OGL LOG] sort_host_mtx_sparsity_pattern : 2 ms
[OGL LOG] sort_host_mtx : 1 ms
[OGL LOG] init_preconditioner : 0 ms
[OGL LOG] solve : 0 ms
noneompGKOBiCGStab:  Solving for Uy, Initial residual = 0, Final residual = 0, No Iterations 0
[OGL LOG] init_host_sparsity_pattern : 4 ms
[OGL LOG] matrix not stored update host matrix
[OGL LOG] update_host_mtx : 1 ms
[OGL LOG] matrix is not yet sorted, sorting host matrix
[OGL LOG] sort_host_mtx_sparsity_pattern : 2 ms
[OGL LOG] sort_host_mtx : 1 ms
[OGL LOG] init_preconditioner : 0 ms
[OGL LOG] solve : 0 ms
noneompGKOBiCGStab:  Solving for Uz, Initial residual = 0, Final residual = 0, No Iterations 0
[OGL LOG] init_host_sparsity_pattern : 4 ms
[OGL LOG] matrix not stored update host matrix
[OGL LOG] update_host_mtx : 1 ms
[OGL LOG] matrix is not yet sorted, sorting host matrix
[OGL LOG] sort_host_mtx_sparsity_pattern : 2 ms
[OGL LOG] sort_host_mtx : 1 ms
[OGL LOG] init_preconditioner : 0 ms
[OGL LOG] solve : 108 ms
noneompGKOBiCGStab:  Solving for p, Initial residual = 1, Final residual = 7.75853e-07, No Iterations 172
time step continuity errors : sum local = 2.00404e-07, global = -9.60721e-20, cumulative = -9.60721e-20
[OGL LOG] init_preconditioner : 0 ms
[OGL LOG] solve : 106 ms
noneompGKOBiCGStab:  Solving for p, Initial residual = 0.752921, Final residual = 7.20658e-07, No Iterations 169
time step continuity errors : sum local = 4.58714e-07, global = 8.39257e-20, cumulative = -1.21464e-20
ExecutionTime = 0.77 s  ClockTime = 0 s

Time = 0.032

Courant Number mean: 0.51472 max: 2.81436
[OGL LOG] init_host_sparsity_pattern : 4 ms
[OGL LOG] matrix not stored update host matrix
[OGL LOG] update_host_mtx : 1 ms
[OGL LOG] matrix is not yet sorted, sorting host matrix
[OGL LOG] sort_host_mtx_sparsity_pattern : 2 ms
[OGL LOG] sort_host_mtx : 1 ms
[OGL LOG] init_preconditioner : 0 ms
[OGL LOG] solve : 26 ms
noneompGKOBiCGStab:  Solving for Ux, Initial residual = 0.237241, Final residual = 5.24181e-07, No Iterations 39
[OGL LOG] init_host_sparsity_pattern : 4 ms
[OGL LOG] matrix not stored update host matrix
[OGL LOG] update_host_mtx : 1 ms
[OGL LOG] matrix is not yet sorted, sorting host matrix
[OGL LOG] sort_host_mtx_sparsity_pattern : 2 ms
[OGL LOG] sort_host_mtx : 1 ms
[OGL LOG] init_preconditioner : 0 ms
[OGL LOG] solve : 35 ms
noneompGKOBiCGStab:  Solving for Uy, Initial residual = 0.587627, Final residual = 6.68379e-07, No Iterations 46
[OGL LOG] init_host_sparsity_pattern : 4 ms
[OGL LOG] matrix not stored update host matrix
[OGL LOG] update_host_mtx : 1 ms
[OGL LOG] matrix is not yet sorted, sorting host matrix
[OGL LOG] sort_host_mtx_sparsity_pattern : 2 ms
[OGL LOG] sort_host_mtx : 1 ms
[OGL LOG] init_preconditioner : 0 ms
[OGL LOG] solve : 32 ms
noneompGKOBiCGStab:  Solving for Uz, Initial residual = 0.353225, Final residual = 7.10068e-07, No Iterations 41
[OGL LOG] init_preconditioner : 0 ms
[OGL LOG] solve : 129 ms
noneompGKOBiCGStab:  Solving for p, Initial residual = 0.763181, Final residual = 8.37922e-07, No Iterations 166
time step continuity errors : sum local = 5.5989e-07, global = 3.22218e-19, cumulative = 3.10072e-19
[OGL LOG] init_preconditioner : 0 ms
[OGL LOG] solve : 129 ms
noneompGKOBiCGStab:  Solving for p, Initial residual = 0.683091, Final residual = 9.99109e-07, No Iterations 166
time step continuity errors : sum local = 1.03868e-07, global = -1.76658e-19, cumulative = 1.33413e-19
ExecutionTime = 1.54 s  ClockTime = 1 s

Time = 0.048

Courant Number mean: 0.758096 max: 3.79785
[OGL LOG] init_host_sparsity_pattern : 4 ms
[OGL LOG] matrix not stored update host matrix
[OGL LOG] update_host_mtx : 1 ms
[OGL LOG] matrix is not yet sorted, sorting host matrix
[OGL LOG] sort_host_mtx_sparsity_pattern : 2 ms
[OGL LOG] sort_host_mtx : 1 ms
[OGL LOG] init_preconditioner : 0 ms
[OGL LOG] solve : 29 ms
noneompGKOBiCGStab:  Solving for Ux, Initial residual = 0.201753, Final residual = 3.58455e-07, No Iterations 38
[OGL LOG] init_host_sparsity_pattern : 4 ms
[OGL LOG] matrix not stored update host matrix
[OGL LOG] update_host_mtx : 1 ms
[OGL LOG] matrix is not yet sorted, sorting host matrix
[OGL LOG] sort_host_mtx_sparsity_pattern : 2 ms
[OGL LOG] sort_host_mtx : 1 ms
[OGL LOG] init_preconditioner : 0 ms
[OGL LOG] solve : 33 ms
noneompGKOBiCGStab:  Solving for Uy, Initial residual = 0.531106, Final residual = 9.62144e-07, No Iterations 43
[OGL LOG] init_host_sparsity_pattern : 4 ms
[OGL LOG] matrix not stored update host matrix
[OGL LOG] update_host_mtx : 1 ms
[OGL LOG] matrix is not yet sorted, sorting host matrix
[OGL LOG] sort_host_mtx_sparsity_pattern : 2 ms
[OGL LOG] sort_host_mtx : 1 ms
[OGL LOG] init_preconditioner : 0 ms
[OGL LOG] solve : 30 ms
noneompGKOBiCGStab:  Solving for Uz, Initial residual = 0.358746, Final residual = 8.89517e-07, No Iterations 39
[OGL LOG] init_preconditioner : 0 ms
[OGL LOG] solve : 130 ms
noneompGKOBiCGStab:  Solving for p, Initial residual = 0.777071, Final residual = 5.96178e-07, No Iterations 166
time step continuity errors : sum local = 1.90755e-06, global = 3.58368e-19, cumulative = 4.91781e-19
[OGL LOG] init_preconditioner : 0 ms
[OGL LOG] solve : 132 ms
noneompGKOBiCGStab:  Solving for p, Initial residual = 0.748129, Final residual = 9.90588e-07, No Iterations 164
time step continuity errors : sum local = 9.94045e-07, global = -9.55683e-20, cumulative = 3.96213e-19
ExecutionTime = 2.32 s  ClockTime = 1 s

Time = 0.064

Courant Number mean: 0.685363 max: 3.20055
[OGL LOG] init_host_sparsity_pattern : 4 ms
[OGL LOG] matrix not stored update host matrix
[OGL LOG] update_host_mtx : 2 ms
[OGL LOG] matrix is not yet sorted, sorting host matrix
[OGL LOG] sort_host_mtx_sparsity_pattern : 3 ms
[OGL LOG] sort_host_mtx : 1 ms
[OGL LOG] init_preconditioner : 0 ms
[OGL LOG] solve : 31 ms
noneompGKOBiCGStab:  Solving for Ux, Initial residual = 0.15272, Final residual = 7.04512e-07, No Iterations 41
[OGL LOG] init_host_sparsity_pattern : 4 ms
[OGL LOG] matrix not stored update host matrix
[OGL LOG] update_host_mtx : 1 ms
[OGL LOG] matrix is not yet sorted, sorting host matrix
[OGL LOG] sort_host_mtx_sparsity_pattern : 2 ms
[OGL LOG] sort_host_mtx : 1 ms
[OGL LOG] init_preconditioner : 0 ms
[OGL LOG] solve : 30 ms
noneompGKOBiCGStab:  Solving for Uy, Initial residual = 0.317481, Final residual = 6.43265e-07, No Iterations 40
[OGL LOG] init_host_sparsity_pattern : 4 ms
[OGL LOG] matrix not stored update host matrix
[OGL LOG] update_host_mtx : 1 ms
[OGL LOG] matrix is not yet sorted, sorting host matrix
[OGL LOG] sort_host_mtx_sparsity_pattern : 2 ms
[OGL LOG] sort_host_mtx : 1 ms
[OGL LOG] init_preconditioner : 0 ms
[OGL LOG] solve : 30 ms
noneompGKOBiCGStab:  Solving for Uz, Initial residual = 0.69921, Final residual = 7.05158e-07, No Iterations 40
[OGL LOG] init_preconditioner : 0 ms
[OGL LOG] solve : 133 ms
noneompGKOBiCGStab:  Solving for p, Initial residual = 0.704088, Final residual = 5.75389e-07, No Iterations 173
time step continuity errors : sum local = 5.72502e-07, global = -1.03867e-19, cumulative = 2.92345e-19
[OGL LOG] init_preconditioner : 0 ms
[OGL LOG] solve : 124 ms
noneompGKOBiCGStab:  Solving for p, Initial residual = 0.618332, Final residual = 8.92478e-07, No Iterations 167
time step continuity errors : sum local = 8.03223e-06, global = -6.19294e-19, cumulative = -3.26948e-19
ExecutionTime = 3.09 s  ClockTime = 1 s

Time = 0.08

Courant Number mean: 0.783803 max: 3.73321
[OGL LOG] init_host_sparsity_pattern : 4 ms
[OGL LOG] matrix not stored update host matrix
[OGL LOG] update_host_mtx : 1 ms
[OGL LOG] matrix is not yet sorted, sorting host matrix
[OGL LOG] sort_host_mtx_sparsity_pattern : 2 ms
[OGL LOG] sort_host_mtx : 1 ms
[OGL LOG] init_preconditioner : 0 ms
[OGL LOG] solve : 28 ms
noneompGKOBiCGStab:  Solving for Ux, Initial residual = 0.123981, Final residual = 7.99069e-07, No Iterations 36
[OGL LOG] init_host_sparsity_pattern : 4 ms
[OGL LOG] matrix not stored update host matrix
[OGL LOG] update_host_mtx : 1 ms
[OGL LOG] matrix is not yet sorted, sorting host matrix
[OGL LOG] sort_host_mtx_sparsity_pattern : 2 ms
[OGL LOG] sort_host_mtx : 1 ms
[OGL LOG] init_preconditioner : 0 ms
[OGL LOG] solve : 30 ms
noneompGKOBiCGStab:  Solving for Uy, Initial residual = 0.296626, Final residual = 9.96625e-07, No Iterations 40
[OGL LOG] init_host_sparsity_pattern : 4 ms
[OGL LOG] matrix not stored update host matrix
[OGL LOG] update_host_mtx : 1 ms
[OGL LOG] matrix is not yet sorted, sorting host matrix
[OGL LOG] sort_host_mtx_sparsity_pattern : 2 ms
[OGL LOG] sort_host_mtx : 1 ms
[OGL LOG] init_preconditioner : 0 ms
[OGL LOG] solve : 30 ms
noneompGKOBiCGStab:  Solving for Uz, Initial residual = 0.452825, Final residual = 9.91177e-07, No Iterations 39
[OGL LOG] init_preconditioner : 0 ms
[OGL LOG] solve : 130 ms
noneompGKOBiCGStab:  Solving for p, Initial residual = 0.70545, Final residual = 5.53492e-07, No Iterations 170
time step continuity errors : sum local = 5.80519e-06, global = 9.20487e-21, cumulative = -3.17743e-19
[OGL LOG] init_preconditioner : 0 ms
[OGL LOG] solve : 126 ms
noneompGKOBiCGStab:  Solving for p, Initial residual = 0.669003, Final residual = 9.04497e-07, No Iterations 170
time step continuity errors : sum local = 3.11878e-07, global = -2.6806e-19, cumulative = -5.85804e-19
ExecutionTime = 3.84 s  ClockTime = 2 s

End

