/*---------------------------------------------------------------------------*\
  =========                 |
  \\      /  F ield         | OpenFOAM: The Open Source CFD Toolbox
   \\    /   O peration     | Website:  https://openfoam.org
    \\  /    A nd           | Version:  8
     \\/     M anipulation  |
\*---------------------------------------------------------------------------*/
Build  : 8-13d66902f78c
Exec   : icoFoam
Date   : Jul 04 2021
Time   : 09:19:35
Host   : "uc2n404.localdomain"
PID    : 18238
I/O    : uncollated
Case   : /pfs/data5/home/kit/scc/nq7776/code/OGL_DATA/lidDrivenCavity3D/v0.1-136-g40fef35/f584ccac99/IntelXeonGold6230CPU@2.10GHz/Test_2021-07-04-09:19:32/25/p-U-BiCGStab-OF-none-reference/lidDrivenCavity3D
nProcs : 1
sigFpe : Enabling floating point exception trapping (FOAM_SIGFPE).
fileModificationChecking : Monitoring run-time modified files using timeStampMaster (fileModificationSkew 10)
allowSystemOperations : Allowing user-supplied system call operations

// * * * * * * * * * * * * * * * * * * * * * * * * * * * * * * * * * * * * * //
Create time

Create mesh for time = 0

Reading transportProperties

Reading field p

Reading field U

Reading/calculating face flux field phi


Starting time loop

Time = 0.004

Courant Number mean: 0 max: 0
nonePBiCGStab:  Solving for Ux, Initial residual = 1, Final residual = 7.65408e-07, No Iterations 29
nonePBiCGStab:  Solving for Uy, Initial residual = 0, Final residual = 0, No Iterations 0
nonePBiCGStab:  Solving for Uz, Initial residual = 0, Final residual = 0, No Iterations 0
nonePBiCGStab:  Solving for p, Initial residual = 1, Final residual = 9.9245e-07, No Iterations 173
time step continuity errors : sum local = 8.80598e-09, global = 1.11157e-20, cumulative = 1.11157e-20
nonePBiCGStab:  Solving for p, Initial residual = 0.644084, Final residual = 9.85128e-07, No Iterations 175
time step continuity errors : sum local = 1.23589e-08, global = -4.06621e-21, cumulative = 7.04944e-21
ExecutionTime = 0.22 s  ClockTime = 0 s

Time = 0.008

Courant Number mean: 0.0870973 max: 0.619854
nonePBiCGStab:  Solving for Ux, Initial residual = 0.155596, Final residual = 8.35628e-07, No Iterations 24
nonePBiCGStab:  Solving for Uy, Initial residual = 0.278825, Final residual = 9.73537e-07, No Iterations 25
nonePBiCGStab:  Solving for Uz, Initial residual = 0.935422, Final residual = 8.30778e-07, No Iterations 27
nonePBiCGStab:  Solving for p, Initial residual = 0.528615, Final residual = 8.36101e-07, No Iterations 167
time step continuity errors : sum local = 1.00261e-08, global = -5.29913e-22, cumulative = 6.51953e-21
nonePBiCGStab:  Solving for p, Initial residual = 0.436139, Final residual = 8.20414e-07, No Iterations 167
time step continuity errors : sum local = 1.02765e-08, global = 1.23541e-19, cumulative = 1.30061e-19
ExecutionTime = 0.35 s  ClockTime = 1 s

Time = 0.012

Courant Number mean: 0.127408 max: 0.79886
nonePBiCGStab:  Solving for Ux, Initial residual = 0.0410172, Final residual = 6.91084e-07, No Iterations 21
nonePBiCGStab:  Solving for Uy, Initial residual = 0.0707774, Final residual = 8.72724e-07, No Iterations 22
nonePBiCGStab:  Solving for Uz, Initial residual = 0.155406, Final residual = 7.32037e-07, No Iterations 23
nonePBiCGStab:  Solving for p, Initial residual = 0.273218, Final residual = 9.66117e-07, No Iterations 172
time step continuity errors : sum local = 8.26305e-09, global = 5.77579e-22, cumulative = 1.30638e-19
nonePBiCGStab:  Solving for p, Initial residual = 0.222005, Final residual = 9.84014e-07, No Iterations 170
time step continuity errors : sum local = 8.24862e-09, global = 1.8252e-20, cumulative = 1.4889e-19
ExecutionTime = 0.47 s  ClockTime = 1 s

Time = 0.016

Courant Number mean: 0.145283 max: 0.827356
nonePBiCGStab:  Solving for Ux, Initial residual = 0.0207025, Final residual = 7.74178e-07, No Iterations 17
nonePBiCGStab:  Solving for Uy, Initial residual = 0.0443379, Final residual = 8.57397e-07, No Iterations 20
nonePBiCGStab:  Solving for Uz, Initial residual = 0.081825, Final residual = 9.26251e-07, No Iterations 22
nonePBiCGStab:  Solving for p, Initial residual = 0.129446, Final residual = 9.7609e-07, No Iterations 162
time step continuity errors : sum local = 8.23878e-09, global = 9.1693e-20, cumulative = 2.40583e-19
nonePBiCGStab:  Solving for p, Initial residual = 0.100655, Final residual = 8.92381e-07, No Iterations 161
time step continuity errors : sum local = 7.42225e-09, global = 3.95951e-21, cumulative = 2.44543e-19
ExecutionTime = 0.59 s  ClockTime = 1 s

Time = 0.02

Courant Number mean: 0.157111 max: 0.84597
nonePBiCGStab:  Solving for Ux, Initial residual = 0.0127491, Final residual = 7.32071e-07, No Iterations 18
nonePBiCGStab:  Solving for Uy, Initial residual = 0.0265838, Final residual = 9.65113e-07, No Iterations 19
nonePBiCGStab:  Solving for Uz, Initial residual = 0.0476631, Final residual = 8.95581e-07, No Iterations 21
nonePBiCGStab:  Solving for p, Initial residual = 0.0611458, Final residual = 9.32761e-07, No Iterations 154
time step continuity errors : sum local = 7.62259e-09, global = 7.07531e-20, cumulative = 3.15296e-19
nonePBiCGStab:  Solving for p, Initial residual = 0.0485973, Final residual = 9.45847e-07, No Iterations 151
time step continuity errors : sum local = 7.72828e-09, global = 5.45707e-20, cumulative = 3.69867e-19
ExecutionTime = 0.7 s  ClockTime = 1 s

End

