/*---------------------------------------------------------------------------*\
  =========                 |
  \\      /  F ield         | OpenFOAM: The Open Source CFD Toolbox
   \\    /   O peration     | Website:  https://openfoam.org
    \\  /    A nd           | Version:  8
     \\/     M anipulation  |
\*---------------------------------------------------------------------------*/
Build  : 8-13d66902f78c
Exec   : icoFoam
Date   : Jul 04 2021
Time   : 08:42:57
Host   : "uc2n399.localdomain"
PID    : 2496357
I/O    : uncollated
Case   : /pfs/data5/home/kit/scc/nq7776/code/OGL_DATA/lidDrivenCavity3D/v0.1-136-g40fef35/f584ccac99/IntelXeonGold6230CPU@2.10GHz/Test_2021-07-04-08:36:30/25/p-U-CG-GKO-none-omp/lidDrivenCavity3D
nProcs : 1
sigFpe : Enabling floating point exception trapping (FOAM_SIGFPE).
fileModificationChecking : Monitoring run-time modified files using timeStampMaster (fileModificationSkew 10)
allowSystemOperations : Allowing user-supplied system call operations

// * * * * * * * * * * * * * * * * * * * * * * * * * * * * * * * * * * * * * //
Create time

Create mesh for time = 0

Reading transportProperties

Reading field p

Reading field U

Reading/calculating face flux field phi


Starting time loop

Time = 0.016

Courant Number mean: 0 max: 0
[OGL LOG] init_host_sparsity_pattern : 4 ms
[OGL LOG] matrix not stored update host matrix
[OGL LOG] update_host_mtx : 2 ms
[OGL LOG] matrix is not yet sorted, compute sorting idxs
[OGL LOG] compute_sort : 106 ms
[OGL LOG] matrix is not yet sorted, sorting host matrix
[OGL LOG] sort_host_mtx_sparsity_pattern : 2 ms
[OGL LOG] sort_host_mtx : 1 ms
[OGL LOG] init_preconditioner : 0 ms
[OGL LOG] solve : 131 ms
noneompGKOBiCGStab:  Solving for Ux, Initial residual = 1, Final residual = 9.17551e-07, No Iterations 42
[OGL LOG] init_host_sparsity_pattern : 5 ms
[OGL LOG] matrix not stored update host matrix
[OGL LOG] update_host_mtx : 2 ms
[OGL LOG] matrix is not yet sorted, sorting host matrix
[OGL LOG] sort_host_mtx_sparsity_pattern : 2 ms
[OGL LOG] sort_host_mtx : 1 ms
[OGL LOG] init_preconditioner : 0 ms
[OGL LOG] solve : 1 ms
noneompGKOBiCGStab:  Solving for Uy, Initial residual = 0, Final residual = 0, No Iterations 0
[OGL LOG] init_host_sparsity_pattern : 5 ms
[OGL LOG] matrix not stored update host matrix
[OGL LOG] update_host_mtx : 2 ms
[OGL LOG] matrix is not yet sorted, sorting host matrix
[OGL LOG] sort_host_mtx_sparsity_pattern : 2 ms
[OGL LOG] sort_host_mtx : 1 ms
[OGL LOG] init_preconditioner : 0 ms
[OGL LOG] solve : 0 ms
noneompGKOBiCGStab:  Solving for Uz, Initial residual = 0, Final residual = 0, No Iterations 0
[OGL LOG] init_host_sparsity_pattern : 5 ms
[OGL LOG] matrix not stored update host matrix
[OGL LOG] update_host_mtx : 1 ms
[OGL LOG] matrix is not yet sorted, sorting host matrix
[OGL LOG] sort_host_mtx_sparsity_pattern : 2 ms
[OGL LOG] sort_host_mtx : 1 ms
[OGL LOG] init_preconditioner : 0 ms
[OGL LOG] solve : 95 ms
noneompGKOCG:  Solving for p, Initial residual = 1, Final residual = 9.79059e-07, No Iterations 217
time step continuity errors : sum local = 3.25291e-08, global = -3.96021e-20, cumulative = -3.96021e-20
[OGL LOG] init_preconditioner : 0 ms
[OGL LOG] solve : 89 ms
noneompGKOCG:  Solving for p, Initial residual = 0.752917, Final residual = 9.26209e-07, No Iterations 214
time step continuity errors : sum local = 3.89291e-08, global = -5.14085e-19, cumulative = -5.53687e-19
ExecutionTime = 20.99 s  ClockTime = 1 s

Time = 0.032

Courant Number mean: 0.51472 max: 2.81436
[OGL LOG] init_host_sparsity_pattern : 5 ms
[OGL LOG] matrix not stored update host matrix
[OGL LOG] update_host_mtx : 1 ms
[OGL LOG] matrix is not yet sorted, sorting host matrix
[OGL LOG] sort_host_mtx_sparsity_pattern : 2 ms
[OGL LOG] sort_host_mtx : 1 ms
[OGL LOG] init_preconditioner : 0 ms
[OGL LOG] solve : 32 ms
noneompGKOBiCGStab:  Solving for Ux, Initial residual = 0.237237, Final residual = 6.52582e-07, No Iterations 38
[OGL LOG] init_host_sparsity_pattern : 5 ms
[OGL LOG] matrix not stored update host matrix
[OGL LOG] update_host_mtx : 2 ms
[OGL LOG] matrix is not yet sorted, sorting host matrix
[OGL LOG] sort_host_mtx_sparsity_pattern : 2 ms
[OGL LOG] sort_host_mtx : 1 ms
[OGL LOG] init_preconditioner : 0 ms
[OGL LOG] solve : 37 ms
noneompGKOBiCGStab:  Solving for Uy, Initial residual = 0.587629, Final residual = 5.7863e-07, No Iterations 43
[OGL LOG] init_host_sparsity_pattern : 5 ms
[OGL LOG] matrix not stored update host matrix
[OGL LOG] update_host_mtx : 2 ms
[OGL LOG] matrix is not yet sorted, sorting host matrix
[OGL LOG] sort_host_mtx_sparsity_pattern : 2 ms
[OGL LOG] sort_host_mtx : 1 ms
[OGL LOG] init_preconditioner : 0 ms
[OGL LOG] solve : 33 ms
noneompGKOBiCGStab:  Solving for Uz, Initial residual = 0.353126, Final residual = 9.19253e-07, No Iterations 39
[OGL LOG] init_preconditioner : 0 ms
[OGL LOG] solve : 90 ms
noneompGKOCG:  Solving for p, Initial residual = 0.76318, Final residual = 9.45232e-07, No Iterations 214
time step continuity errors : sum local = 4.88053e-08, global = 6.22429e-19, cumulative = 6.87425e-20
[OGL LOG] init_preconditioner : 0 ms
[OGL LOG] solve : 89 ms
noneompGKOCG:  Solving for p, Initial residual = 0.68309, Final residual = 9.61229e-07, No Iterations 212
time step continuity errors : sum local = 5.17274e-08, global = 4.46086e-19, cumulative = 5.14828e-19
ExecutionTime = 40.66 s  ClockTime = 1 s

Time = 0.048

Courant Number mean: 0.758092 max: 3.79784
[OGL LOG] init_host_sparsity_pattern : 5 ms
[OGL LOG] matrix not stored update host matrix
[OGL LOG] update_host_mtx : 1 ms
[OGL LOG] matrix is not yet sorted, sorting host matrix
[OGL LOG] sort_host_mtx_sparsity_pattern : 2 ms
[OGL LOG] sort_host_mtx : 1 ms
[OGL LOG] init_preconditioner : 0 ms
[OGL LOG] solve : 35 ms
noneompGKOBiCGStab:  Solving for Ux, Initial residual = 0.201737, Final residual = 9.0785e-07, No Iterations 42
[OGL LOG] init_host_sparsity_pattern : 5 ms
[OGL LOG] matrix not stored update host matrix
[OGL LOG] update_host_mtx : 2 ms
[OGL LOG] matrix is not yet sorted, sorting host matrix
[OGL LOG] sort_host_mtx_sparsity_pattern : 2 ms
[OGL LOG] sort_host_mtx : 1 ms
[OGL LOG] init_preconditioner : 0 ms
[OGL LOG] solve : 33 ms
noneompGKOBiCGStab:  Solving for Uy, Initial residual = 0.531137, Final residual = 7.73702e-07, No Iterations 40
[OGL LOG] init_host_sparsity_pattern : 5 ms
[OGL LOG] matrix not stored update host matrix
[OGL LOG] update_host_mtx : 2 ms
[OGL LOG] matrix is not yet sorted, sorting host matrix
[OGL LOG] sort_host_mtx_sparsity_pattern : 2 ms
[OGL LOG] sort_host_mtx : 1 ms
[OGL LOG] init_preconditioner : 0 ms
[OGL LOG] solve : 33 ms
noneompGKOBiCGStab:  Solving for Uz, Initial residual = 0.358656, Final residual = 8.39558e-07, No Iterations 39
[OGL LOG] init_preconditioner : 0 ms
[OGL LOG] solve : 91 ms
noneompGKOCG:  Solving for p, Initial residual = 0.77706, Final residual = 9.14273e-07, No Iterations 215
time step continuity errors : sum local = 4.07674e-08, global = 3.48508e-20, cumulative = 5.49679e-19
[OGL LOG] init_preconditioner : 0 ms
[OGL LOG] solve : 92 ms
noneompGKOCG:  Solving for p, Initial residual = 0.748138, Final residual = 9.33686e-07, No Iterations 214
time step continuity errors : sum local = 3.98244e-08, global = 7.27578e-19, cumulative = 1.27726e-18
ExecutionTime = 60.47 s  ClockTime = 1 s

Time = 0.064

Courant Number mean: 0.685361 max: 3.20055
[OGL LOG] init_host_sparsity_pattern : 5 ms
[OGL LOG] matrix not stored update host matrix
[OGL LOG] update_host_mtx : 1 ms
[OGL LOG] matrix is not yet sorted, sorting host matrix
[OGL LOG] sort_host_mtx_sparsity_pattern : 2 ms
[OGL LOG] sort_host_mtx : 1 ms
[OGL LOG] init_preconditioner : 0 ms
[OGL LOG] solve : 39 ms
noneompGKOBiCGStab:  Solving for Ux, Initial residual = 0.152701, Final residual = 9.95612e-07, No Iterations 36
[OGL LOG] init_host_sparsity_pattern : 4 ms
[OGL LOG] matrix not stored update host matrix
[OGL LOG] update_host_mtx : 2 ms
[OGL LOG] matrix is not yet sorted, sorting host matrix
[OGL LOG] sort_host_mtx_sparsity_pattern : 3 ms
[OGL LOG] sort_host_mtx : 1 ms
[OGL LOG] init_preconditioner : 0 ms
[OGL LOG] solve : 33 ms
noneompGKOBiCGStab:  Solving for Uy, Initial residual = 0.3175, Final residual = 9.59409e-07, No Iterations 39
[OGL LOG] init_host_sparsity_pattern : 5 ms
[OGL LOG] matrix not stored update host matrix
[OGL LOG] update_host_mtx : 2 ms
[OGL LOG] matrix is not yet sorted, sorting host matrix
[OGL LOG] sort_host_mtx_sparsity_pattern : 2 ms
[OGL LOG] sort_host_mtx : 1 ms
[OGL LOG] init_preconditioner : 0 ms
[OGL LOG] solve : 31 ms
noneompGKOBiCGStab:  Solving for Uz, Initial residual = 0.699068, Final residual = 7.93461e-07, No Iterations 36
[OGL LOG] init_preconditioner : 0 ms
[OGL LOG] solve : 98 ms
noneompGKOCG:  Solving for p, Initial residual = 0.704092, Final residual = 9.90718e-07, No Iterations 214
time step continuity errors : sum local = 4.4221e-08, global = 3.95161e-19, cumulative = 1.67242e-18
[OGL LOG] init_preconditioner : 0 ms
[OGL LOG] solve : 93 ms
noneompGKOCG:  Solving for p, Initial residual = 0.618333, Final residual = 9.42765e-07, No Iterations 214
time step continuity errors : sum local = 4.39839e-08, global = -3.89494e-19, cumulative = 1.28292e-18
ExecutionTime = 81.44 s  ClockTime = 2 s

Time = 0.08

Courant Number mean: 0.783797 max: 3.73318
[OGL LOG] init_host_sparsity_pattern : 4 ms
[OGL LOG] matrix not stored update host matrix
[OGL LOG] update_host_mtx : 1 ms
[OGL LOG] matrix is not yet sorted, sorting host matrix
[OGL LOG] sort_host_mtx_sparsity_pattern : 2 ms
[OGL LOG] sort_host_mtx : 1 ms
[OGL LOG] init_preconditioner : 0 ms
[OGL LOG] solve : 31 ms
noneompGKOBiCGStab:  Solving for Ux, Initial residual = 0.123933, Final residual = 9.72179e-07, No Iterations 38
[OGL LOG] init_host_sparsity_pattern : 5 ms
[OGL LOG] matrix not stored update host matrix
[OGL LOG] update_host_mtx : 2 ms
[OGL LOG] matrix is not yet sorted, sorting host matrix
[OGL LOG] sort_host_mtx_sparsity_pattern : 2 ms
[OGL LOG] sort_host_mtx : 1 ms
[OGL LOG] init_preconditioner : 0 ms
[OGL LOG] solve : 31 ms
noneompGKOBiCGStab:  Solving for Uy, Initial residual = 0.296696, Final residual = 9.51958e-07, No Iterations 38
[OGL LOG] init_host_sparsity_pattern : 5 ms
[OGL LOG] matrix not stored update host matrix
[OGL LOG] update_host_mtx : 2 ms
[OGL LOG] matrix is not yet sorted, sorting host matrix
[OGL LOG] sort_host_mtx_sparsity_pattern : 2 ms
[OGL LOG] sort_host_mtx : 1 ms
[OGL LOG] init_preconditioner : 0 ms
[OGL LOG] solve : 30 ms
noneompGKOBiCGStab:  Solving for Uz, Initial residual = 0.452355, Final residual = 7.72947e-07, No Iterations 36
[OGL LOG] init_preconditioner : 0 ms
[OGL LOG] solve : 94 ms
noneompGKOCG:  Solving for p, Initial residual = 0.705375, Final residual = 8.94996e-07, No Iterations 215
time step continuity errors : sum local = 3.31415e-08, global = -1.24701e-19, cumulative = 1.15822e-18
[OGL LOG] init_preconditioner : 0 ms
[OGL LOG] solve : 94 ms
noneompGKOCG:  Solving for p, Initial residual = 0.668983, Final residual = 8.46e-07, No Iterations 215
time step continuity errors : sum local = 3.02423e-08, global = 7.78244e-19, cumulative = 1.93647e-18
ExecutionTime = 101.02 s  ClockTime = 2 s

End

