/*---------------------------------------------------------------------------*\
  =========                 |
  \\      /  F ield         | OpenFOAM: The Open Source CFD Toolbox
   \\    /   O peration     | Website:  https://openfoam.org
    \\  /    A nd           | Version:  8
     \\/     M anipulation  |
\*---------------------------------------------------------------------------*/
Build  : 8-13d66902f78c
Exec   : icoFoam
Date   : Jul 04 2021
Time   : 09:43:18
Host   : "uc2n445.localdomain"
PID    : 2196893
I/O    : uncollated
Case   : /pfs/data5/home/kit/scc/nq7776/code/OGL_DATA/lidDrivenCavity3D/v0.1-136-g40fef35/f584ccac99/IntelXeonGold6230CPU@2.10GHz/Test_2021-07-04-08:13:47/75/p-BiCGStab-GKO-BJ-omp/lidDrivenCavity3D
nProcs : 1
sigFpe : Enabling floating point exception trapping (FOAM_SIGFPE).
fileModificationChecking : Monitoring run-time modified files using timeStampMaster (fileModificationSkew 10)
allowSystemOperations : Allowing user-supplied system call operations

// * * * * * * * * * * * * * * * * * * * * * * * * * * * * * * * * * * * * * //
Create time

Create mesh for time = 0

Reading transportProperties

Reading field p

Reading field U

Reading/calculating face flux field phi


Starting time loop

Time = 0.00133333

Courant Number mean: 0 max: 0
nonePBiCGStab:  Solving for Ux, Initial residual = 1, Final residual = 0.0730231, No Iterations 5
nonePBiCGStab:  Solving for Uy, Initial residual = 0, Final residual = 0, No Iterations 0
nonePBiCGStab:  Solving for Uz, Initial residual = 0, Final residual = 0, No Iterations 0
[OGL LOG] init_host_sparsity_pattern : 123 ms
[OGL LOG] matrix not stored update host matrix
[OGL LOG] update_host_mtx : 62 ms
[OGL LOG] matrix is not yet sorted, compute sorting idxs
[OGL LOG] compute_sort : 3621 ms
[OGL LOG] matrix is not yet sorted, sorting host matrix
[OGL LOG] sort_host_mtx_sparsity_pattern : 81 ms
[OGL LOG] sort_host_mtx : 52 ms
[OGL LOG] init_preconditioner : 23 ms
[OGL LOG] solve : 5754 ms
BJompGKOBiCGStab:  Solving for p, Initial residual = 1, Final residual = 4.64271e-07, No Iterations 415
time step continuity errors : sum local = 1.92551e-08, global = 5.36756e-21, cumulative = 5.36756e-21
[OGL LOG] init_preconditioner : 0 ms
[OGL LOG] solve : 4860 ms
BJompGKOBiCGStab:  Solving for p, Initial residual = 0.697113, Final residual = 9.13109e-07, No Iterations 412
time step continuity errors : sum local = 7.34752e-09, global = -3.02257e-21, cumulative = 2.34498e-21
ExecutionTime = 345 s  ClockTime = 16 s

Time = 0.00266667

Courant Number mean: 0.0508075 max: 0.767232
nonePBiCGStab:  Solving for Ux, Initial residual = 0.140594, Final residual = 0.0324539, No Iterations 5
nonePBiCGStab:  Solving for Uy, Initial residual = 0.413641, Final residual = 0.0923303, No Iterations 5
nonePBiCGStab:  Solving for Uz, Initial residual = 0.983157, Final residual = 0.249947, No Iterations 5
[OGL LOG] init_preconditioner : 0 ms
[OGL LOG] solve : 5039 ms
BJompGKOBiCGStab:  Solving for p, Initial residual = 0.74689, Final residual = 8.81193e-07, No Iterations 403
time step continuity errors : sum local = 2.99932e-09, global = -2.58013e-21, cumulative = -2.35143e-22
[OGL LOG] init_preconditioner : 0 ms
[OGL LOG] solve : 4928 ms
BJompGKOBiCGStab:  Solving for p, Initial residual = 0.668119, Final residual = 7.86652e-07, No Iterations 396
time step continuity errors : sum local = 1.20027e-08, global = -1.4935e-20, cumulative = -1.51702e-20
ExecutionTime = 663.62 s  ClockTime = 27 s

Time = 0.004

Courant Number mean: 0.0796132 max: 0.886021
nonePBiCGStab:  Solving for Ux, Initial residual = 0.0584487, Final residual = 0.0111481, No Iterations 5
nonePBiCGStab:  Solving for Uy, Initial residual = 0.171962, Final residual = 0.0398853, No Iterations 5
nonePBiCGStab:  Solving for Uz, Initial residual = 0.610624, Final residual = 0.142153, No Iterations 5
[OGL LOG] init_preconditioner : 0 ms
[OGL LOG] solve : 5206 ms
BJompGKOBiCGStab:  Solving for p, Initial residual = 0.730354, Final residual = 9.72459e-07, No Iterations 418
time step continuity errors : sum local = 1.0439e-09, global = 5.41708e-21, cumulative = -9.7531e-21
[OGL LOG] init_preconditioner : 0 ms
[OGL LOG] solve : 5178 ms
BJompGKOBiCGStab:  Solving for p, Initial residual = 0.660906, Final residual = 8.6377e-07, No Iterations 404
time step continuity errors : sum local = 1.06977e-08, global = -3.9705e-21, cumulative = -1.37236e-20
ExecutionTime = 995.72 s  ClockTime = 38 s

Time = 0.00533333

Courant Number mean: 0.0948103 max: 0.902547
nonePBiCGStab:  Solving for Ux, Initial residual = 0.0345941, Final residual = 0.0068294, No Iterations 5
nonePBiCGStab:  Solving for Uy, Initial residual = 0.119552, Final residual = 0.0298174, No Iterations 5
nonePBiCGStab:  Solving for Uz, Initial residual = 0.386114, Final residual = 0.0806453, No Iterations 5
[OGL LOG] init_preconditioner : 0 ms
[OGL LOG] solve : 2907 ms
BJompGKOBiCGStab:  Solving for p, Initial residual = 0.609787, Final residual = 9.41939e-07, No Iterations 241
time step continuity errors : sum local = 1.76212e-09, global = -6.03114e-21, cumulative = -1.97547e-20
[OGL LOG] init_preconditioner : 0 ms
[OGL LOG] solve : 5356 ms
BJompGKOBiCGStab:  Solving for p, Initial residual = 0.521104, Final residual = 9.79989e-07, No Iterations 390
time step continuity errors : sum local = 1.31822e-09, global = 1.26092e-20, cumulative = -7.14554e-21
ExecutionTime = 1260.1 s  ClockTime = 47 s

Time = 0.00666667

Courant Number mean: 0.107177 max: 0.916756
nonePBiCGStab:  Solving for Ux, Initial residual = 0.0257314, Final residual = 0.00503108, No Iterations 5
nonePBiCGStab:  Solving for Uy, Initial residual = 0.0750502, Final residual = 0.0208222, No Iterations 5
nonePBiCGStab:  Solving for Uz, Initial residual = 0.212628, Final residual = 0.0494925, No Iterations 5
[OGL LOG] init_preconditioner : 0 ms
[OGL LOG] solve : 4937 ms
BJompGKOBiCGStab:  Solving for p, Initial residual = 0.629319, Final residual = 9.50717e-07, No Iterations 386
time step continuity errors : sum local = 1.29262e-09, global = -5.49468e-21, cumulative = -1.26402e-20
[OGL LOG] init_preconditioner : 0 ms
[OGL LOG] solve : 5019 ms
BJompGKOBiCGStab:  Solving for p, Initial residual = 0.552161, Final residual = 6.50506e-07, No Iterations 383
time step continuity errors : sum local = 5.48401e-10, global = -1.15063e-20, cumulative = -2.41466e-20
ExecutionTime = 1578.57 s  ClockTime = 57 s

End

