/*---------------------------------------------------------------------------*\
  =========                 |
  \\      /  F ield         | OpenFOAM: The Open Source CFD Toolbox
   \\    /   O peration     | Website:  https://openfoam.org
    \\  /    A nd           | Version:  8
     \\/     M anipulation  |
\*---------------------------------------------------------------------------*/
Build  : 8-13d66902f78c
Exec   : icoFoam
Date   : Jul 04 2021
Time   : 08:37:49
Host   : "uc2n399.localdomain"
PID    : 2493254
I/O    : uncollated
Case   : /pfs/data5/home/kit/scc/nq7776/code/OGL_DATA/lidDrivenCavity3D/v0.1-136-g40fef35/f584ccac99/IntelXeonGold6230CPU@2.10GHz/Test_2021-07-04-08:36:30/25/p-U-CG-GKO-none-omp/lidDrivenCavity3D
nProcs : 1
sigFpe : Enabling floating point exception trapping (FOAM_SIGFPE).
fileModificationChecking : Monitoring run-time modified files using timeStampMaster (fileModificationSkew 10)
allowSystemOperations : Allowing user-supplied system call operations

// * * * * * * * * * * * * * * * * * * * * * * * * * * * * * * * * * * * * * //
Create time

Create mesh for time = 0

Reading transportProperties

Reading field p

Reading field U

Reading/calculating face flux field phi


Starting time loop

Time = 0.016

Courant Number mean: 0 max: 0
[OGL LOG] init_host_sparsity_pattern : 4 ms
[OGL LOG] matrix not stored update host matrix
[OGL LOG] update_host_mtx : 2 ms
[OGL LOG] matrix is not yet sorted, compute sorting idxs
[OGL LOG] compute_sort : 106 ms
[OGL LOG] matrix is not yet sorted, sorting host matrix
[OGL LOG] sort_host_mtx_sparsity_pattern : 2 ms
[OGL LOG] sort_host_mtx : 1 ms
[OGL LOG] init_preconditioner : 0 ms
[OGL LOG] solve : 27 ms
noneompGKOBiCGStab:  Solving for Ux, Initial residual = 1, Final residual = 9.17551e-07, No Iterations 42
[OGL LOG] init_host_sparsity_pattern : 4 ms
[OGL LOG] matrix not stored update host matrix
[OGL LOG] update_host_mtx : 2 ms
[OGL LOG] matrix is not yet sorted, sorting host matrix
[OGL LOG] sort_host_mtx_sparsity_pattern : 2 ms
[OGL LOG] sort_host_mtx : 1 ms
[OGL LOG] init_preconditioner : 0 ms
[OGL LOG] solve : 0 ms
noneompGKOBiCGStab:  Solving for Uy, Initial residual = 0, Final residual = 0, No Iterations 0
[OGL LOG] init_host_sparsity_pattern : 4 ms
[OGL LOG] matrix not stored update host matrix
[OGL LOG] update_host_mtx : 2 ms
[OGL LOG] matrix is not yet sorted, sorting host matrix
[OGL LOG] sort_host_mtx_sparsity_pattern : 2 ms
[OGL LOG] sort_host_mtx : 1 ms
[OGL LOG] init_preconditioner : 0 ms
[OGL LOG] solve : 0 ms
noneompGKOBiCGStab:  Solving for Uz, Initial residual = 0, Final residual = 0, No Iterations 0
[OGL LOG] init_host_sparsity_pattern : 4 ms
[OGL LOG] matrix not stored update host matrix
[OGL LOG] update_host_mtx : 2 ms
[OGL LOG] matrix is not yet sorted, sorting host matrix
[OGL LOG] sort_host_mtx_sparsity_pattern : 2 ms
[OGL LOG] sort_host_mtx : 1 ms
[OGL LOG] init_preconditioner : 0 ms
[OGL LOG] solve : 70 ms
noneompGKOCG:  Solving for p, Initial residual = 1, Final residual = 9.14926e-07, No Iterations 217
time step continuity errors : sum local = 3.0398e-08, global = -8.74826e-21, cumulative = -8.74826e-21
[OGL LOG] init_preconditioner : 0 ms
[OGL LOG] solve : 70 ms
noneompGKOCG:  Solving for p, Initial residual = 0.752917, Final residual = 9.89754e-07, No Iterations 213
time step continuity errors : sum local = 4.16008e-08, global = -9.92656e-20, cumulative = -1.08014e-19
ExecutionTime = 0.63 s  ClockTime = 1 s

Time = 0.032

Courant Number mean: 0.51472 max: 2.81436
[OGL LOG] init_host_sparsity_pattern : 4 ms
[OGL LOG] matrix not stored update host matrix
[OGL LOG] update_host_mtx : 1 ms
[OGL LOG] matrix is not yet sorted, sorting host matrix
[OGL LOG] sort_host_mtx_sparsity_pattern : 2 ms
[OGL LOG] sort_host_mtx : 1 ms
[OGL LOG] init_preconditioner : 0 ms
[OGL LOG] solve : 24 ms
noneompGKOBiCGStab:  Solving for Ux, Initial residual = 0.237237, Final residual = 8.44154e-07, No Iterations 38
[OGL LOG] init_host_sparsity_pattern : 4 ms
[OGL LOG] matrix not stored update host matrix
[OGL LOG] update_host_mtx : 1 ms
[OGL LOG] matrix is not yet sorted, sorting host matrix
[OGL LOG] sort_host_mtx_sparsity_pattern : 2 ms
[OGL LOG] sort_host_mtx : 1 ms
[OGL LOG] init_preconditioner : 0 ms
[OGL LOG] solve : 27 ms
noneompGKOBiCGStab:  Solving for Uy, Initial residual = 0.587629, Final residual = 9.72259e-07, No Iterations 44
[OGL LOG] init_host_sparsity_pattern : 4 ms
[OGL LOG] matrix not stored update host matrix
[OGL LOG] update_host_mtx : 1 ms
[OGL LOG] matrix is not yet sorted, sorting host matrix
[OGL LOG] sort_host_mtx_sparsity_pattern : 2 ms
[OGL LOG] sort_host_mtx : 1 ms
[OGL LOG] init_preconditioner : 0 ms
[OGL LOG] solve : 26 ms
noneompGKOBiCGStab:  Solving for Uz, Initial residual = 0.353126, Final residual = 7.65383e-07, No Iterations 39
[OGL LOG] init_preconditioner : 0 ms
[OGL LOG] solve : 81 ms
noneompGKOCG:  Solving for p, Initial residual = 0.76318, Final residual = 9.16923e-07, No Iterations 214
time step continuity errors : sum local = 4.73486e-08, global = 4.55119e-19, cumulative = 3.47105e-19
[OGL LOG] init_preconditioner : 0 ms
[OGL LOG] solve : 79 ms
noneompGKOCG:  Solving for p, Initial residual = 0.683089, Final residual = 9.53571e-07, No Iterations 212
time step continuity errors : sum local = 5.13148e-08, global = -2.96677e-19, cumulative = 5.04285e-20
ExecutionTime = 1.17 s  ClockTime = 1 s

Time = 0.048

Courant Number mean: 0.758091 max: 3.79784
[OGL LOG] init_host_sparsity_pattern : 4 ms
[OGL LOG] matrix not stored update host matrix
[OGL LOG] update_host_mtx : 1 ms
[OGL LOG] matrix is not yet sorted, sorting host matrix
[OGL LOG] sort_host_mtx_sparsity_pattern : 2 ms
[OGL LOG] sort_host_mtx : 1 ms
[OGL LOG] init_preconditioner : 0 ms
[OGL LOG] solve : 29 ms
noneompGKOBiCGStab:  Solving for Ux, Initial residual = 0.201737, Final residual = 9.76354e-07, No Iterations 40
[OGL LOG] init_host_sparsity_pattern : 4 ms
[OGL LOG] matrix not stored update host matrix
[OGL LOG] update_host_mtx : 1 ms
[OGL LOG] matrix is not yet sorted, sorting host matrix
[OGL LOG] sort_host_mtx_sparsity_pattern : 2 ms
[OGL LOG] sort_host_mtx : 1 ms
[OGL LOG] init_preconditioner : 0 ms
[OGL LOG] solve : 31 ms
noneompGKOBiCGStab:  Solving for Uy, Initial residual = 0.531137, Final residual = 9.18249e-07, No Iterations 42
[OGL LOG] init_host_sparsity_pattern : 4 ms
[OGL LOG] matrix not stored update host matrix
[OGL LOG] update_host_mtx : 1 ms
[OGL LOG] matrix is not yet sorted, sorting host matrix
[OGL LOG] sort_host_mtx_sparsity_pattern : 2 ms
[OGL LOG] sort_host_mtx : 1 ms
[OGL LOG] init_preconditioner : 0 ms
[OGL LOG] solve : 29 ms
noneompGKOBiCGStab:  Solving for Uz, Initial residual = 0.358656, Final residual = 7.45772e-07, No Iterations 39
[OGL LOG] init_preconditioner : 0 ms
[OGL LOG] solve : 80 ms
noneompGKOCG:  Solving for p, Initial residual = 0.77706, Final residual = 9.08601e-07, No Iterations 215
time step continuity errors : sum local = 4.05123e-08, global = -8.1105e-22, cumulative = 4.96174e-20
[OGL LOG] init_preconditioner : 0 ms
[OGL LOG] solve : 80 ms
noneompGKOCG:  Solving for p, Initial residual = 0.748138, Final residual = 9.28495e-07, No Iterations 214
time step continuity errors : sum local = 3.96033e-08, global = -3.53153e-19, cumulative = -3.03535e-19
ExecutionTime = 1.73 s  ClockTime = 1 s

Time = 0.064

Courant Number mean: 0.685361 max: 3.20055
[OGL LOG] init_host_sparsity_pattern : 4 ms
[OGL LOG] matrix not stored update host matrix
[OGL LOG] update_host_mtx : 1 ms
[OGL LOG] matrix is not yet sorted, sorting host matrix
[OGL LOG] sort_host_mtx_sparsity_pattern : 2 ms
[OGL LOG] sort_host_mtx : 1 ms
[OGL LOG] init_preconditioner : 0 ms
[OGL LOG] solve : 29 ms
noneompGKOBiCGStab:  Solving for Ux, Initial residual = 0.152701, Final residual = 8.89371e-07, No Iterations 40
[OGL LOG] init_host_sparsity_pattern : 4 ms
[OGL LOG] matrix not stored update host matrix
[OGL LOG] update_host_mtx : 1 ms
[OGL LOG] matrix is not yet sorted, sorting host matrix
[OGL LOG] sort_host_mtx_sparsity_pattern : 2 ms
[OGL LOG] sort_host_mtx : 1 ms
[OGL LOG] init_preconditioner : 0 ms
[OGL LOG] solve : 28 ms
noneompGKOBiCGStab:  Solving for Uy, Initial residual = 0.317501, Final residual = 8.06855e-07, No Iterations 39
[OGL LOG] init_host_sparsity_pattern : 4 ms
[OGL LOG] matrix not stored update host matrix
[OGL LOG] update_host_mtx : 1 ms
[OGL LOG] matrix is not yet sorted, sorting host matrix
[OGL LOG] sort_host_mtx_sparsity_pattern : 2 ms
[OGL LOG] sort_host_mtx : 1 ms
[OGL LOG] init_preconditioner : 0 ms
[OGL LOG] solve : 26 ms
noneompGKOBiCGStab:  Solving for Uz, Initial residual = 0.699066, Final residual = 8.30154e-07, No Iterations 36
[OGL LOG] init_preconditioner : 0 ms
[OGL LOG] solve : 80 ms
noneompGKOCG:  Solving for p, Initial residual = 0.70409, Final residual = 8.91229e-07, No Iterations 215
time step continuity errors : sum local = 3.97762e-08, global = 1.48676e-19, cumulative = -1.54859e-19
[OGL LOG] init_preconditioner : 0 ms
[OGL LOG] solve : 80 ms
noneompGKOCG:  Solving for p, Initial residual = 0.618332, Final residual = 9.38554e-07, No Iterations 214
time step continuity errors : sum local = 4.37872e-08, global = 1.45262e-19, cumulative = -9.59745e-21
ExecutionTime = 2.28 s  ClockTime = 1 s

Time = 0.08

Courant Number mean: 0.783797 max: 3.73318
[OGL LOG] init_host_sparsity_pattern : 4 ms
[OGL LOG] matrix not stored update host matrix
[OGL LOG] update_host_mtx : 1 ms
[OGL LOG] matrix is not yet sorted, sorting host matrix
[OGL LOG] sort_host_mtx_sparsity_pattern : 2 ms
[OGL LOG] sort_host_mtx : 1 ms
[OGL LOG] init_preconditioner : 0 ms
[OGL LOG] solve : 31 ms
noneompGKOBiCGStab:  Solving for Ux, Initial residual = 0.123933, Final residual = 3.32194e-07, No Iterations 38
[OGL LOG] init_host_sparsity_pattern : 5 ms
[OGL LOG] matrix not stored update host matrix
[OGL LOG] update_host_mtx : 2 ms
[OGL LOG] matrix is not yet sorted, sorting host matrix
[OGL LOG] sort_host_mtx_sparsity_pattern : 3 ms
[OGL LOG] sort_host_mtx : 1 ms
[OGL LOG] init_preconditioner : 0 ms
[OGL LOG] solve : 28 ms
noneompGKOBiCGStab:  Solving for Uy, Initial residual = 0.296695, Final residual = 3.09481e-07, No Iterations 38
[OGL LOG] init_host_sparsity_pattern : 4 ms
[OGL LOG] matrix not stored update host matrix
[OGL LOG] update_host_mtx : 1 ms
[OGL LOG] matrix is not yet sorted, sorting host matrix
[OGL LOG] sort_host_mtx_sparsity_pattern : 2 ms
[OGL LOG] sort_host_mtx : 1 ms
[OGL LOG] init_preconditioner : 0 ms
[OGL LOG] solve : 27 ms
noneompGKOBiCGStab:  Solving for Uz, Initial residual = 0.452356, Final residual = 8.46598e-07, No Iterations 37
[OGL LOG] init_preconditioner : 0 ms
[OGL LOG] solve : 93 ms
noneompGKOCG:  Solving for p, Initial residual = 0.705376, Final residual = 8.87663e-07, No Iterations 215
time step continuity errors : sum local = 3.28696e-08, global = -7.56645e-19, cumulative = -7.66243e-19
[OGL LOG] init_preconditioner : 0 ms
[OGL LOG] solve : 91 ms
noneompGKOCG:  Solving for p, Initial residual = 0.668985, Final residual = 8.69615e-07, No Iterations 215
time step continuity errors : sum local = 3.10868e-08, global = -1.61462e-19, cumulative = -9.27705e-19
ExecutionTime = 2.9 s  ClockTime = 2 s

End

