/*---------------------------------------------------------------------------*\
  =========                 |
  \\      /  F ield         | OpenFOAM: The Open Source CFD Toolbox
   \\    /   O peration     | Website:  https://openfoam.org
    \\  /    A nd           | Version:  8
     \\/     M anipulation  |
\*---------------------------------------------------------------------------*/
Build  : 8-13d66902f78c
Exec   : icoFoam
Date   : Jul 04 2021
Time   : 09:01:21
Host   : "uc2n384.localdomain"
PID    : 2622577
I/O    : uncollated
Case   : /pfs/data5/home/kit/scc/nq7776/code/OGL_DATA/lidDrivenCavity3D/v0.1-136-g40fef35/f584ccac99/IntelXeonGold6230CPU@2.10GHz/Test_2021-07-04-08:57:08/25/p-U-CG-GKO-BJ-omp/lidDrivenCavity3D
nProcs : 1
sigFpe : Enabling floating point exception trapping (FOAM_SIGFPE).
fileModificationChecking : Monitoring run-time modified files using timeStampMaster (fileModificationSkew 10)
allowSystemOperations : Allowing user-supplied system call operations

// * * * * * * * * * * * * * * * * * * * * * * * * * * * * * * * * * * * * * //
Create time

Create mesh for time = 0

Reading transportProperties

Reading field p

Reading field U

Reading/calculating face flux field phi


Starting time loop

Time = 0.004

Courant Number mean: 0 max: 0
[OGL LOG] init_host_sparsity_pattern : 4 ms
[OGL LOG] matrix not stored update host matrix
[OGL LOG] update_host_mtx : 2 ms
[OGL LOG] matrix is not yet sorted, compute sorting idxs
[OGL LOG] compute_sort : 106 ms
[OGL LOG] matrix is not yet sorted, sorting host matrix
[OGL LOG] sort_host_mtx_sparsity_pattern : 2 ms
[OGL LOG] sort_host_mtx : 1 ms
[OGL LOG] init_preconditioner : 1 ms
[OGL LOG] solve : 17 ms
BJompGKOBiCGStab:  Solving for Ux, Initial residual = 1, Final residual = 6.47745e-07, No Iterations 22
[OGL LOG] init_host_sparsity_pattern : 4 ms
[OGL LOG] matrix not stored update host matrix
[OGL LOG] update_host_mtx : 2 ms
[OGL LOG] matrix is not yet sorted, sorting host matrix
[OGL LOG] sort_host_mtx_sparsity_pattern : 3 ms
[OGL LOG] sort_host_mtx : 1 ms
[OGL LOG] init_preconditioner : 0 ms
[OGL LOG] solve : 0 ms
BJompGKOBiCGStab:  Solving for Uy, Initial residual = 0, Final residual = 0, No Iterations 0
[OGL LOG] init_host_sparsity_pattern : 4 ms
[OGL LOG] matrix not stored update host matrix
[OGL LOG] update_host_mtx : 2 ms
[OGL LOG] matrix is not yet sorted, sorting host matrix
[OGL LOG] sort_host_mtx_sparsity_pattern : 2 ms
[OGL LOG] sort_host_mtx : 1 ms
[OGL LOG] init_preconditioner : 0 ms
[OGL LOG] solve : 0 ms
BJompGKOBiCGStab:  Solving for Uz, Initial residual = 0, Final residual = 0, No Iterations 0
[OGL LOG] init_host_sparsity_pattern : 4 ms
[OGL LOG] matrix not stored update host matrix
[OGL LOG] update_host_mtx : 2 ms
[OGL LOG] matrix is not yet sorted, sorting host matrix
[OGL LOG] sort_host_mtx_sparsity_pattern : 2 ms
[OGL LOG] sort_host_mtx : 1 ms
[OGL LOG] init_preconditioner : 0 ms
 CG create  precond 
[OGL LOG] solve : 64 ms
BJompGKOCG:  Solving for p, Initial residual = 1, Final residual = 9.97301e-07, No Iterations 185
time step continuity errors : sum local = 4.42673e-09, global = 5.6848e-22, cumulative = 5.6848e-22
[OGL LOG] init_preconditioner : 0 ms
 CG create  precond 
[OGL LOG] solve : 63 ms
BJompGKOCG:  Solving for p, Initial residual = 0.644082, Final residual = 8.74198e-07, No Iterations 182
time step continuity errors : sum local = 5.48477e-09, global = 4.06537e-20, cumulative = 4.12221e-20
ExecutionTime = 2.97 s  ClockTime = 1 s

Time = 0.008

Courant Number mean: 0.0870973 max: 0.619854
[OGL LOG] init_host_sparsity_pattern : 4 ms
[OGL LOG] matrix not stored update host matrix
[OGL LOG] update_host_mtx : 1 ms
[OGL LOG] matrix is not yet sorted, sorting host matrix
[OGL LOG] sort_host_mtx_sparsity_pattern : 2 ms
[OGL LOG] sort_host_mtx : 1 ms
[OGL LOG] init_preconditioner : 0 ms
[OGL LOG] solve : 14 ms
BJompGKOBiCGStab:  Solving for Ux, Initial residual = 0.238938, Final residual = 8.6468e-07, No Iterations 19
[OGL LOG] init_host_sparsity_pattern : 4 ms
[OGL LOG] matrix not stored update host matrix
[OGL LOG] update_host_mtx : 2 ms
[OGL LOG] matrix is not yet sorted, sorting host matrix
[OGL LOG] sort_host_mtx_sparsity_pattern : 2 ms
[OGL LOG] sort_host_mtx : 1 ms
[OGL LOG] init_preconditioner : 0 ms
[OGL LOG] solve : 14 ms
BJompGKOBiCGStab:  Solving for Uy, Initial residual = 0.615478, Final residual = 7.77152e-07, No Iterations 20
[OGL LOG] init_host_sparsity_pattern : 4 ms
[OGL LOG] matrix not stored update host matrix
[OGL LOG] update_host_mtx : 2 ms
[OGL LOG] matrix is not yet sorted, sorting host matrix
[OGL LOG] sort_host_mtx_sparsity_pattern : 2 ms
[OGL LOG] sort_host_mtx : 1 ms
[OGL LOG] init_preconditioner : 0 ms
[OGL LOG] solve : 13 ms
BJompGKOBiCGStab:  Solving for Uz, Initial residual = 0.391818, Final residual = 7.3409e-07, No Iterations 19
[OGL LOG] init_preconditioner : 0 ms
 CG create  precond 
[OGL LOG] solve : 67 ms
BJompGKOCG:  Solving for p, Initial residual = 0.527354, Final residual = 9.48316e-07, No Iterations 194
time step continuity errors : sum local = 5.68299e-09, global = -3.49783e-20, cumulative = 6.24387e-21
[OGL LOG] init_preconditioner : 0 ms
 CG create  precond 
[OGL LOG] solve : 71 ms
BJompGKOCG:  Solving for p, Initial residual = 0.437513, Final residual = 9.94139e-07, No Iterations 193
time step continuity errors : sum local = 6.20826e-09, global = 1.41463e-20, cumulative = 2.03902e-20
ExecutionTime = 6.23 s  ClockTime = 1 s

Time = 0.012

Courant Number mean: 0.127403 max: 0.798792
[OGL LOG] init_host_sparsity_pattern : 4 ms
[OGL LOG] matrix not stored update host matrix
[OGL LOG] update_host_mtx : 1 ms
[OGL LOG] matrix is not yet sorted, sorting host matrix
[OGL LOG] sort_host_mtx_sparsity_pattern : 2 ms
[OGL LOG] sort_host_mtx : 1 ms
[OGL LOG] init_preconditioner : 0 ms
[OGL LOG] solve : 15 ms
BJompGKOBiCGStab:  Solving for Ux, Initial residual = 0.0920495, Final residual = 9.42003e-07, No Iterations 18
[OGL LOG] init_host_sparsity_pattern : 4 ms
[OGL LOG] matrix not stored update host matrix
[OGL LOG] update_host_mtx : 1 ms
[OGL LOG] matrix is not yet sorted, sorting host matrix
[OGL LOG] sort_host_mtx_sparsity_pattern : 2 ms
[OGL LOG] sort_host_mtx : 1 ms
[OGL LOG] init_preconditioner : 0 ms
[OGL LOG] solve : 14 ms
BJompGKOBiCGStab:  Solving for Uy, Initial residual = 0.145852, Final residual = 9.21789e-07, No Iterations 17
[OGL LOG] init_host_sparsity_pattern : 4 ms
[OGL LOG] matrix not stored update host matrix
[OGL LOG] update_host_mtx : 1 ms
[OGL LOG] matrix is not yet sorted, sorting host matrix
[OGL LOG] sort_host_mtx_sparsity_pattern : 2 ms
[OGL LOG] sort_host_mtx : 1 ms
[OGL LOG] init_preconditioner : 0 ms
[OGL LOG] solve : 16 ms
BJompGKOBiCGStab:  Solving for Uz, Initial residual = 0.339763, Final residual = 6.60916e-07, No Iterations 19
[OGL LOG] init_preconditioner : 0 ms
 CG create  precond 
[OGL LOG] solve : 82 ms
BJompGKOCG:  Solving for p, Initial residual = 0.305735, Final residual = 9.81193e-07, No Iterations 189
time step continuity errors : sum local = 4.38441e-09, global = -1.08008e-19, cumulative = -8.76178e-20
[OGL LOG] init_preconditioner : 0 ms
 CG create  precond 
[OGL LOG] solve : 80 ms
BJompGKOCG:  Solving for p, Initial residual = 0.265167, Final residual = 9.31802e-07, No Iterations 182
time step continuity errors : sum local = 4.08564e-09, global = -1.35955e-19, cumulative = -2.23573e-19
ExecutionTime = 9.9 s  ClockTime = 1 s

Time = 0.016

Courant Number mean: 0.145254 max: 0.82722
[OGL LOG] init_host_sparsity_pattern : 4 ms
[OGL LOG] matrix not stored update host matrix
[OGL LOG] update_host_mtx : 1 ms
[OGL LOG] matrix is not yet sorted, sorting host matrix
[OGL LOG] sort_host_mtx_sparsity_pattern : 2 ms
[OGL LOG] sort_host_mtx : 1 ms
[OGL LOG] init_preconditioner : 0 ms
[OGL LOG] solve : 13 ms
BJompGKOBiCGStab:  Solving for Ux, Initial residual = 0.0235044, Final residual = 9.82959e-07, No Iterations 15
[OGL LOG] init_host_sparsity_pattern : 4 ms
[OGL LOG] matrix not stored update host matrix
[OGL LOG] update_host_mtx : 1 ms
[OGL LOG] matrix is not yet sorted, sorting host matrix
[OGL LOG] sort_host_mtx_sparsity_pattern : 2 ms
[OGL LOG] sort_host_mtx : 1 ms
[OGL LOG] init_preconditioner : 0 ms
[OGL LOG] solve : 15 ms
BJompGKOBiCGStab:  Solving for Uy, Initial residual = 0.0608565, Final residual = 8.18957e-07, No Iterations 17
[OGL LOG] init_host_sparsity_pattern : 4 ms
[OGL LOG] matrix not stored update host matrix
[OGL LOG] update_host_mtx : 1 ms
[OGL LOG] matrix is not yet sorted, sorting host matrix
[OGL LOG] sort_host_mtx_sparsity_pattern : 2 ms
[OGL LOG] sort_host_mtx : 1 ms
[OGL LOG] init_preconditioner : 0 ms
[OGL LOG] solve : 16 ms
BJompGKOBiCGStab:  Solving for Uz, Initial residual = 0.184287, Final residual = 7.16207e-07, No Iterations 18
[OGL LOG] init_preconditioner : 0 ms
 CG create  precond 
[OGL LOG] solve : 82 ms
BJompGKOCG:  Solving for p, Initial residual = 0.239443, Final residual = 9.29314e-07, No Iterations 189
time step continuity errors : sum local = 4.3148e-09, global = -7.99929e-20, cumulative = -3.03566e-19
[OGL LOG] init_preconditioner : 0 ms
 CG create  precond 
[OGL LOG] solve : 68 ms
BJompGKOCG:  Solving for p, Initial residual = 0.222234, Final residual = 9.7387e-07, No Iterations 183
time step continuity errors : sum local = 4.573e-09, global = -4.94266e-21, cumulative = -3.08508e-19
ExecutionTime = 13.37 s  ClockTime = 1 s

Time = 0.02

Courant Number mean: 0.157058 max: 0.845844
[OGL LOG] init_host_sparsity_pattern : 4 ms
[OGL LOG] matrix not stored update host matrix
[OGL LOG] update_host_mtx : 1 ms
[OGL LOG] matrix is not yet sorted, sorting host matrix
[OGL LOG] sort_host_mtx_sparsity_pattern : 2 ms
[OGL LOG] sort_host_mtx : 1 ms
[OGL LOG] init_preconditioner : 0 ms
[OGL LOG] solve : 10 ms
BJompGKOBiCGStab:  Solving for Ux, Initial residual = 0.0150185, Final residual = 5.10278e-07, No Iterations 15
[OGL LOG] init_host_sparsity_pattern : 4 ms
[OGL LOG] matrix not stored update host matrix
[OGL LOG] update_host_mtx : 1 ms
[OGL LOG] matrix is not yet sorted, sorting host matrix
[OGL LOG] sort_host_mtx_sparsity_pattern : 2 ms
[OGL LOG] sort_host_mtx : 1 ms
[OGL LOG] init_preconditioner : 0 ms
[OGL LOG] solve : 11 ms
BJompGKOBiCGStab:  Solving for Uy, Initial residual = 0.0280961, Final residual = 7.78291e-07, No Iterations 16
[OGL LOG] init_host_sparsity_pattern : 4 ms
[OGL LOG] matrix not stored update host matrix
[OGL LOG] update_host_mtx : 1 ms
[OGL LOG] matrix is not yet sorted, sorting host matrix
[OGL LOG] sort_host_mtx_sparsity_pattern : 2 ms
[OGL LOG] sort_host_mtx : 1 ms
[OGL LOG] init_preconditioner : 0 ms
[OGL LOG] solve : 11 ms
BJompGKOBiCGStab:  Solving for Uz, Initial residual = 0.0757795, Final residual = 8.56241e-07, No Iterations 16
[OGL LOG] init_preconditioner : 0 ms
 CG create  precond 
[OGL LOG] solve : 64 ms
BJompGKOCG:  Solving for p, Initial residual = 0.234919, Final residual = 9.15341e-07, No Iterations 181
time step continuity errors : sum local = 4.20211e-09, global = 8.80969e-20, cumulative = -2.20411e-19
[OGL LOG] init_preconditioner : 0 ms
 CG create  precond 
[OGL LOG] solve : 63 ms
BJompGKOCG:  Solving for p, Initial residual = 0.233149, Final residual = 8.69982e-07, No Iterations 181
time step continuity errors : sum local = 3.99569e-09, global = 8.53005e-20, cumulative = -1.35111e-19
ExecutionTime = 16.29 s  ClockTime = 2 s

End

