/*---------------------------------------------------------------------------*\
  =========                 |
  \\      /  F ield         | OpenFOAM: The Open Source CFD Toolbox
   \\    /   O peration     | Website:  https://openfoam.org
    \\  /    A nd           | Version:  8
     \\/     M anipulation  |
\*---------------------------------------------------------------------------*/
Build  : 8-13d66902f78c
Exec   : icoFoam
Date   : Jul 04 2021
Time   : 08:41:56
Host   : "uc2n399.localdomain"
PID    : 2494989
I/O    : uncollated
Case   : /pfs/data5/home/kit/scc/nq7776/code/OGL_DATA/lidDrivenCavity3D/v0.1-136-g40fef35/f584ccac99/IntelXeonGold6230CPU@2.10GHz/Test_2021-07-04-08:36:30/25/p-U-CG-GKO-none-omp/lidDrivenCavity3D
nProcs : 1
sigFpe : Enabling floating point exception trapping (FOAM_SIGFPE).
fileModificationChecking : Monitoring run-time modified files using timeStampMaster (fileModificationSkew 10)
allowSystemOperations : Allowing user-supplied system call operations

// * * * * * * * * * * * * * * * * * * * * * * * * * * * * * * * * * * * * * //
Create time

Create mesh for time = 0

Reading transportProperties

Reading field p

Reading field U

Reading/calculating face flux field phi


Starting time loop

Time = 0.016

Courant Number mean: 0 max: 0
[OGL LOG] init_host_sparsity_pattern : 4 ms
[OGL LOG] matrix not stored update host matrix
[OGL LOG] update_host_mtx : 2 ms
[OGL LOG] matrix is not yet sorted, compute sorting idxs
[OGL LOG] compute_sort : 106 ms
[OGL LOG] matrix is not yet sorted, sorting host matrix
[OGL LOG] sort_host_mtx_sparsity_pattern : 2 ms
[OGL LOG] sort_host_mtx : 1 ms
[OGL LOG] init_preconditioner : 0 ms
[OGL LOG] solve : 31 ms
noneompGKOBiCGStab:  Solving for Ux, Initial residual = 1, Final residual = 9.17551e-07, No Iterations 42
[OGL LOG] init_host_sparsity_pattern : 5 ms
[OGL LOG] matrix not stored update host matrix
[OGL LOG] update_host_mtx : 3 ms
[OGL LOG] matrix is not yet sorted, sorting host matrix
[OGL LOG] sort_host_mtx_sparsity_pattern : 3 ms
[OGL LOG] sort_host_mtx : 1 ms
[OGL LOG] init_preconditioner : 0 ms
[OGL LOG] solve : 0 ms
noneompGKOBiCGStab:  Solving for Uy, Initial residual = 0, Final residual = 0, No Iterations 0
[OGL LOG] init_host_sparsity_pattern : 5 ms
[OGL LOG] matrix not stored update host matrix
[OGL LOG] update_host_mtx : 2 ms
[OGL LOG] matrix is not yet sorted, sorting host matrix
[OGL LOG] sort_host_mtx_sparsity_pattern : 2 ms
[OGL LOG] sort_host_mtx : 1 ms
[OGL LOG] init_preconditioner : 0 ms
[OGL LOG] solve : 0 ms
noneompGKOBiCGStab:  Solving for Uz, Initial residual = 0, Final residual = 0, No Iterations 0
[OGL LOG] init_host_sparsity_pattern : 5 ms
[OGL LOG] matrix not stored update host matrix
[OGL LOG] update_host_mtx : 2 ms
[OGL LOG] matrix is not yet sorted, sorting host matrix
[OGL LOG] sort_host_mtx_sparsity_pattern : 2 ms
[OGL LOG] sort_host_mtx : 1 ms
[OGL LOG] init_preconditioner : 0 ms
[OGL LOG] solve : 56 ms
noneompGKOCG:  Solving for p, Initial residual = 1, Final residual = 9.46879e-07, No Iterations 217
time step continuity errors : sum local = 3.14599e-08, global = -5.83559e-20, cumulative = -5.83559e-20
[OGL LOG] init_preconditioner : 0 ms
[OGL LOG] solve : 55 ms
noneompGKOCG:  Solving for p, Initial residual = 0.752917, Final residual = 9.25924e-07, No Iterations 214
time step continuity errors : sum local = 3.8917e-08, global = -7.25942e-20, cumulative = -1.3095e-19
ExecutionTime = 5.87 s  ClockTime = 0 s

Time = 0.032

Courant Number mean: 0.51472 max: 2.81436
[OGL LOG] init_host_sparsity_pattern : 5 ms
[OGL LOG] matrix not stored update host matrix
[OGL LOG] update_host_mtx : 1 ms
[OGL LOG] matrix is not yet sorted, sorting host matrix
[OGL LOG] sort_host_mtx_sparsity_pattern : 2 ms
[OGL LOG] sort_host_mtx : 1 ms
[OGL LOG] init_preconditioner : 0 ms
[OGL LOG] solve : 19 ms
noneompGKOBiCGStab:  Solving for Ux, Initial residual = 0.237237, Final residual = 7.37408e-07, No Iterations 38
[OGL LOG] init_host_sparsity_pattern : 5 ms
[OGL LOG] matrix not stored update host matrix
[OGL LOG] update_host_mtx : 2 ms
[OGL LOG] matrix is not yet sorted, sorting host matrix
[OGL LOG] sort_host_mtx_sparsity_pattern : 2 ms
[OGL LOG] sort_host_mtx : 1 ms
[OGL LOG] init_preconditioner : 0 ms
[OGL LOG] solve : 22 ms
noneompGKOBiCGStab:  Solving for Uy, Initial residual = 0.587629, Final residual = 7.85507e-07, No Iterations 43
[OGL LOG] init_host_sparsity_pattern : 5 ms
[OGL LOG] matrix not stored update host matrix
[OGL LOG] update_host_mtx : 2 ms
[OGL LOG] matrix is not yet sorted, sorting host matrix
[OGL LOG] sort_host_mtx_sparsity_pattern : 2 ms
[OGL LOG] sort_host_mtx : 1 ms
[OGL LOG] init_preconditioner : 0 ms
[OGL LOG] solve : 20 ms
noneompGKOBiCGStab:  Solving for Uz, Initial residual = 0.353126, Final residual = 3.53756e-07, No Iterations 40
[OGL LOG] init_preconditioner : 0 ms
[OGL LOG] solve : 60 ms
noneompGKOCG:  Solving for p, Initial residual = 0.76318, Final residual = 9.4467e-07, No Iterations 214
time step continuity errors : sum local = 4.87755e-08, global = 2.22098e-19, cumulative = 9.11478e-20
[OGL LOG] init_preconditioner : 0 ms
[OGL LOG] solve : 66 ms
noneompGKOCG:  Solving for p, Initial residual = 0.68309, Final residual = 9.65278e-07, No Iterations 212
time step continuity errors : sum local = 5.19452e-08, global = 2.31831e-19, cumulative = 3.22979e-19
ExecutionTime = 12.71 s  ClockTime = 0 s

Time = 0.048

Courant Number mean: 0.758092 max: 3.79784
[OGL LOG] init_host_sparsity_pattern : 5 ms
[OGL LOG] matrix not stored update host matrix
[OGL LOG] update_host_mtx : 1 ms
[OGL LOG] matrix is not yet sorted, sorting host matrix
[OGL LOG] sort_host_mtx_sparsity_pattern : 2 ms
[OGL LOG] sort_host_mtx : 1 ms
[OGL LOG] init_preconditioner : 0 ms
[OGL LOG] solve : 23 ms
noneompGKOBiCGStab:  Solving for Ux, Initial residual = 0.201737, Final residual = 9.69632e-07, No Iterations 37
[OGL LOG] init_host_sparsity_pattern : 6 ms
[OGL LOG] matrix not stored update host matrix
[OGL LOG] update_host_mtx : 1 ms
[OGL LOG] matrix is not yet sorted, sorting host matrix
[OGL LOG] sort_host_mtx_sparsity_pattern : 2 ms
[OGL LOG] sort_host_mtx : 1 ms
[OGL LOG] init_preconditioner : 0 ms
[OGL LOG] solve : 25 ms
noneompGKOBiCGStab:  Solving for Uy, Initial residual = 0.531137, Final residual = 3.96125e-07, No Iterations 40
[OGL LOG] init_host_sparsity_pattern : 6 ms
[OGL LOG] matrix not stored update host matrix
[OGL LOG] update_host_mtx : 1 ms
[OGL LOG] matrix is not yet sorted, sorting host matrix
[OGL LOG] sort_host_mtx_sparsity_pattern : 2 ms
[OGL LOG] sort_host_mtx : 1 ms
[OGL LOG] init_preconditioner : 0 ms
[OGL LOG] solve : 25 ms
noneompGKOBiCGStab:  Solving for Uz, Initial residual = 0.358656, Final residual = 6.21281e-07, No Iterations 39
[OGL LOG] init_preconditioner : 0 ms
[OGL LOG] solve : 71 ms
noneompGKOCG:  Solving for p, Initial residual = 0.77706, Final residual = 8.88627e-07, No Iterations 215
time step continuity errors : sum local = 3.96212e-08, global = -5.6225e-19, cumulative = -2.39271e-19
[OGL LOG] init_preconditioner : 0 ms
[OGL LOG] solve : 72 ms
noneompGKOCG:  Solving for p, Initial residual = 0.748139, Final residual = 9.36068e-07, No Iterations 214
time step continuity errors : sum local = 3.99261e-08, global = 2.98905e-19, cumulative = 5.9634e-20
ExecutionTime = 20.51 s  ClockTime = 1 s

Time = 0.064

Courant Number mean: 0.68536 max: 3.20055
[OGL LOG] init_host_sparsity_pattern : 5 ms
[OGL LOG] matrix not stored update host matrix
[OGL LOG] update_host_mtx : 1 ms
[OGL LOG] matrix is not yet sorted, sorting host matrix
[OGL LOG] sort_host_mtx_sparsity_pattern : 2 ms
[OGL LOG] sort_host_mtx : 1 ms
[OGL LOG] init_preconditioner : 0 ms
[OGL LOG] solve : 24 ms
noneompGKOBiCGStab:  Solving for Ux, Initial residual = 0.152701, Final residual = 8.99988e-07, No Iterations 37
[OGL LOG] init_host_sparsity_pattern : 6 ms
[OGL LOG] matrix not stored update host matrix
[OGL LOG] update_host_mtx : 1 ms
[OGL LOG] matrix is not yet sorted, sorting host matrix
[OGL LOG] sort_host_mtx_sparsity_pattern : 2 ms
[OGL LOG] sort_host_mtx : 1 ms
[OGL LOG] init_preconditioner : 0 ms
[OGL LOG] solve : 25 ms
noneompGKOBiCGStab:  Solving for Uy, Initial residual = 0.3175, Final residual = 9.65004e-07, No Iterations 38
[OGL LOG] init_host_sparsity_pattern : 6 ms
[OGL LOG] matrix not stored update host matrix
[OGL LOG] update_host_mtx : 1 ms
[OGL LOG] matrix is not yet sorted, sorting host matrix
[OGL LOG] sort_host_mtx_sparsity_pattern : 2 ms
[OGL LOG] sort_host_mtx : 1 ms
[OGL LOG] init_preconditioner : 0 ms
[OGL LOG] solve : 23 ms
noneompGKOBiCGStab:  Solving for Uz, Initial residual = 0.699071, Final residual = 7.38875e-07, No Iterations 36
[OGL LOG] init_preconditioner : 0 ms
[OGL LOG] solve : 72 ms
noneompGKOCG:  Solving for p, Initial residual = 0.70409, Final residual = 8.90951e-07, No Iterations 215
time step continuity errors : sum local = 3.97625e-08, global = 1.85202e-19, cumulative = 2.44836e-19
[OGL LOG] init_preconditioner : 0 ms
[OGL LOG] solve : 72 ms
noneompGKOCG:  Solving for p, Initial residual = 0.618333, Final residual = 9.32699e-07, No Iterations 214
time step continuity errors : sum local = 4.35141e-08, global = 4.20691e-19, cumulative = 6.65527e-19
ExecutionTime = 28.3 s  ClockTime = 1 s

Time = 0.08

Courant Number mean: 0.783797 max: 3.73318
[OGL LOG] init_host_sparsity_pattern : 5 ms
[OGL LOG] matrix not stored update host matrix
[OGL LOG] update_host_mtx : 1 ms
[OGL LOG] matrix is not yet sorted, sorting host matrix
[OGL LOG] sort_host_mtx_sparsity_pattern : 2 ms
[OGL LOG] sort_host_mtx : 1 ms
[OGL LOG] init_preconditioner : 0 ms
[OGL LOG] solve : 27 ms
noneompGKOBiCGStab:  Solving for Ux, Initial residual = 0.123933, Final residual = 3.95665e-07, No Iterations 41
[OGL LOG] init_host_sparsity_pattern : 6 ms
[OGL LOG] matrix not stored update host matrix
[OGL LOG] update_host_mtx : 1 ms
[OGL LOG] matrix is not yet sorted, sorting host matrix
[OGL LOG] sort_host_mtx_sparsity_pattern : 2 ms
[OGL LOG] sort_host_mtx : 1 ms
[OGL LOG] init_preconditioner : 0 ms
[OGL LOG] solve : 25 ms
noneompGKOBiCGStab:  Solving for Uy, Initial residual = 0.296692, Final residual = 6.00801e-07, No Iterations 37
[OGL LOG] init_host_sparsity_pattern : 6 ms
[OGL LOG] matrix not stored update host matrix
[OGL LOG] update_host_mtx : 1 ms
[OGL LOG] matrix is not yet sorted, sorting host matrix
[OGL LOG] sort_host_mtx_sparsity_pattern : 2 ms
[OGL LOG] sort_host_mtx : 1 ms
[OGL LOG] init_preconditioner : 0 ms
[OGL LOG] solve : 25 ms
noneompGKOBiCGStab:  Solving for Uz, Initial residual = 0.452356, Final residual = 7.08075e-07, No Iterations 38
[OGL LOG] init_preconditioner : 0 ms
[OGL LOG] solve : 79 ms
noneompGKOCG:  Solving for p, Initial residual = 0.705374, Final residual = 8.93352e-07, No Iterations 215
time step continuity errors : sum local = 3.30791e-08, global = -3.81224e-19, cumulative = 2.84304e-19
[OGL LOG] init_preconditioner : 0 ms
[OGL LOG] solve : 74 ms
noneompGKOCG:  Solving for p, Initial residual = 0.668983, Final residual = 8.78421e-07, No Iterations 215
time step continuity errors : sum local = 3.14016e-08, global = 1.83704e-19, cumulative = 4.68008e-19
ExecutionTime = 36.54 s  ClockTime = 1 s

End

