/*---------------------------------------------------------------------------*\
  =========                 |
  \\      /  F ield         | OpenFOAM: The Open Source CFD Toolbox
   \\    /   O peration     | Website:  https://openfoam.org
    \\  /    A nd           | Version:  8
     \\/     M anipulation  |
\*---------------------------------------------------------------------------*/
Build  : 8-13d66902f78c
Exec   : icoFoam
Date   : Jul 04 2021
Time   : 09:06:15
Host   : "uc2n445.localdomain"
PID    : 2194404
I/O    : uncollated
Case   : /pfs/data5/home/kit/scc/nq7776/code/OGL_DATA/lidDrivenCavity3D/v0.1-136-g40fef35/f584ccac99/IntelXeonGold6230CPU@2.10GHz/Test_2021-07-04-08:13:47/75/p-BiCGStab-GKO-BJ-omp/lidDrivenCavity3D
nProcs : 1
sigFpe : Enabling floating point exception trapping (FOAM_SIGFPE).
fileModificationChecking : Monitoring run-time modified files using timeStampMaster (fileModificationSkew 10)
allowSystemOperations : Allowing user-supplied system call operations

// * * * * * * * * * * * * * * * * * * * * * * * * * * * * * * * * * * * * * //
Create time

Create mesh for time = 0

Reading transportProperties

Reading field p

Reading field U

Reading/calculating face flux field phi


Starting time loop

Time = 0.00133333

Courant Number mean: 0 max: 0
nonePBiCGStab:  Solving for Ux, Initial residual = 1, Final residual = 0.0730231, No Iterations 5
nonePBiCGStab:  Solving for Uy, Initial residual = 0, Final residual = 0, No Iterations 0
nonePBiCGStab:  Solving for Uz, Initial residual = 0, Final residual = 0, No Iterations 0
[OGL LOG] init_host_sparsity_pattern : 129 ms
[OGL LOG] matrix not stored update host matrix
[OGL LOG] update_host_mtx : 63 ms
[OGL LOG] matrix is not yet sorted, compute sorting idxs
[OGL LOG] compute_sort : 3630 ms
[OGL LOG] matrix is not yet sorted, sorting host matrix
[OGL LOG] sort_host_mtx_sparsity_pattern : 80 ms
[OGL LOG] sort_host_mtx : 51 ms
[OGL LOG] init_preconditioner : 60 ms
[OGL LOG] solve : 17039 ms
BJompGKOBiCGStab:  Solving for p, Initial residual = 1, Final residual = 4.64271e-07, No Iterations 415
time step continuity errors : sum local = 3.75427e-09, global = 5.36811e-21, cumulative = 5.36811e-21
[OGL LOG] init_preconditioner : 0 ms
[OGL LOG] solve : 16889 ms
BJompGKOBiCGStab:  Solving for p, Initial residual = 0.697113, Final residual = 9.18802e-07, No Iterations 412
time step continuity errors : sum local = 3.16064e-08, global = -1.76659e-21, cumulative = 3.60152e-21
ExecutionTime = 73.87 s  ClockTime = 40 s

Time = 0.00266667

Courant Number mean: 0.0508076 max: 0.767232
nonePBiCGStab:  Solving for Ux, Initial residual = 0.140596, Final residual = 0.0324552, No Iterations 5
nonePBiCGStab:  Solving for Uy, Initial residual = 0.41364, Final residual = 0.0923394, No Iterations 5
nonePBiCGStab:  Solving for Uz, Initial residual = 0.983033, Final residual = 0.250025, No Iterations 5
[OGL LOG] init_preconditioner : 0 ms
[OGL LOG] solve : 16063 ms
BJompGKOBiCGStab:  Solving for p, Initial residual = 0.746887, Final residual = 9.82697e-07, No Iterations 386
time step continuity errors : sum local = 1.08774e-08, global = 2.34857e-21, cumulative = 5.95009e-21
[OGL LOG] init_preconditioner : 0 ms
[OGL LOG] solve : 17024 ms
BJompGKOBiCGStab:  Solving for p, Initial residual = 0.668121, Final residual = 3.39073e-07, No Iterations 412
time step continuity errors : sum local = 5.7739e-10, global = -1.0845e-20, cumulative = -4.89493e-21
ExecutionTime = 140.43 s  ClockTime = 73 s

Time = 0.004

Courant Number mean: 0.0796132 max: 0.886021
nonePBiCGStab:  Solving for Ux, Initial residual = 0.0584474, Final residual = 0.0111474, No Iterations 5
nonePBiCGStab:  Solving for Uy, Initial residual = 0.171974, Final residual = 0.039893, No Iterations 5
nonePBiCGStab:  Solving for Uz, Initial residual = 0.610537, Final residual = 0.142073, No Iterations 5
[OGL LOG] init_preconditioner : 0 ms
[OGL LOG] solve : 16396 ms
BJompGKOBiCGStab:  Solving for p, Initial residual = 0.730367, Final residual = 9.44365e-07, No Iterations 395
time step continuity errors : sum local = 4.34419e-09, global = -9.9503e-21, cumulative = -1.48452e-20
[OGL LOG] init_preconditioner : 0 ms
[OGL LOG] solve : 16775 ms
BJompGKOBiCGStab:  Solving for p, Initial residual = 0.660914, Final residual = 7.46942e-07, No Iterations 405
time step continuity errors : sum local = 4.30728e-09, global = -1.17387e-20, cumulative = -2.65839e-20
ExecutionTime = 207.06 s  ClockTime = 107 s

Time = 0.00533333

Courant Number mean: 0.0948102 max: 0.902547
nonePBiCGStab:  Solving for Ux, Initial residual = 0.034595, Final residual = 0.00683002, No Iterations 5
nonePBiCGStab:  Solving for Uy, Initial residual = 0.119552, Final residual = 0.02982, No Iterations 5
nonePBiCGStab:  Solving for Uz, Initial residual = 0.38594, Final residual = 0.080652, No Iterations 5
[OGL LOG] init_preconditioner : 0 ms
[OGL LOG] solve : 16465 ms
BJompGKOBiCGStab:  Solving for p, Initial residual = 0.609805, Final residual = 9.91422e-07, No Iterations 398
time step continuity errors : sum local = 1.06837e-09, global = -7.09917e-21, cumulative = -3.36831e-20
[OGL LOG] init_preconditioner : 0 ms
[OGL LOG] solve : 16390 ms
BJompGKOBiCGStab:  Solving for p, Initial residual = 0.521128, Final residual = 9.91156e-07, No Iterations 396
time step continuity errors : sum local = 1.07942e-09, global = -1.80815e-20, cumulative = -5.17646e-20
ExecutionTime = 273.13 s  ClockTime = 140 s

Time = 0.00666667

Courant Number mean: 0.107176 max: 0.916756
nonePBiCGStab:  Solving for Ux, Initial residual = 0.0257313, Final residual = 0.00503103, No Iterations 5
nonePBiCGStab:  Solving for Uy, Initial residual = 0.0750505, Final residual = 0.020825, No Iterations 5
nonePBiCGStab:  Solving for Uz, Initial residual = 0.212634, Final residual = 0.0494928, No Iterations 5
[OGL LOG] init_preconditioner : 0 ms
[OGL LOG] solve : 16244 ms
BJompGKOBiCGStab:  Solving for p, Initial residual = 0.629327, Final residual = 8.79245e-07, No Iterations 392
time step continuity errors : sum local = 9.91187e-10, global = 9.88509e-21, cumulative = -4.18795e-20
[OGL LOG] init_preconditioner : 0 ms
[OGL LOG] solve : 16940 ms
BJompGKOBiCGStab:  Solving for p, Initial residual = 0.552169, Final residual = 7.67307e-07, No Iterations 409
time step continuity errors : sum local = 1.094e-09, global = 1.73048e-20, cumulative = -2.45747e-20
ExecutionTime = 339.86 s  ClockTime = 174 s

End

