/*---------------------------------------------------------------------------*\
  =========                 |
  \\      /  F ield         | OpenFOAM: The Open Source CFD Toolbox
   \\    /   O peration     | Website:  https://openfoam.org
    \\  /    A nd           | Version:  8
     \\/     M anipulation  |
\*---------------------------------------------------------------------------*/
Build  : 8-13d66902f78c
Exec   : icoFoam
Date   : Jun 27 2021
Time   : 23:36:34
Host   : "uc2n477.localdomain"
PID    : 4182672
I/O    : uncollated
Case   : /pfs/data5/home/kit/scc/nq7776/code/OGL_DATA/lidDrivenCavity3D/v0.1-118-gbd9d99d/f584ccac99/IntelXeonGold6230CPU@2.10GHz/Test_2021-06-27-23:04:46/50/p-U-BiCGStab-GKO-none-omp/lidDrivenCavity3D
nProcs : 1
sigFpe : Enabling floating point exception trapping (FOAM_SIGFPE).
fileModificationChecking : Monitoring run-time modified files using timeStampMaster (fileModificationSkew 10)
allowSystemOperations : Allowing user-supplied system call operations

// * * * * * * * * * * * * * * * * * * * * * * * * * * * * * * * * * * * * * //
Create time

Create mesh for time = 0

Reading transportProperties

Reading field p

Reading field U

Reading/calculating face flux field phi


Starting time loop

Time = 0.002

Courant Number mean: 0 max: 0
Gingko init_host_sparsity_pattern : 36 ms
 matrix not stored update host matrix 
Gingko update_host_mtx : 18 ms
matrix is not yet sorted, compute sorting idxs 
 compute sorting idxs 860000
Gingko compute_sort : 995 ms
matrix is not yet sorted,  sorting host matrix 
Gingko sort_host_mtx_sparsity_pattern : 23 ms
Gingko sort_host_mtx : 15 ms
Gingko init_preconditioner : 0 ms
 get_precond == NULL
Gingko solve : 130 ms
 copy back
 get iters 
noneompGKOBiCGStab:  Solving for Ux, Initial residual = 0, Final residual = 8.72813e-07, No Iterations 41
Gingko init_host_sparsity_pattern : 35 ms
 matrix not stored update host matrix 
Gingko update_host_mtx : 18 ms
matrix is not yet sorted,  sorting host matrix 
Gingko sort_host_mtx_sparsity_pattern : 23 ms
Gingko sort_host_mtx : 12 ms
Gingko init_preconditioner : 0 ms
 get_precond == NULL
Gingko solve : 2 ms
 copy back
 get iters 
noneompGKOBiCGStab:  Solving for Uy, Initial residual = 1, Final residual = 0, No Iterations 0
Gingko init_host_sparsity_pattern : 34 ms
 matrix not stored update host matrix 
Gingko update_host_mtx : 16 ms
matrix is not yet sorted,  sorting host matrix 
Gingko sort_host_mtx_sparsity_pattern : 23 ms
Gingko sort_host_mtx : 12 ms
Gingko init_preconditioner : 0 ms
 get_precond == NULL
Gingko solve : 2 ms
 copy back
 get iters 
noneompGKOBiCGStab:  Solving for Uz, Initial residual = 0, Final residual = 0, No Iterations 0
Gingko init_host_sparsity_pattern : 32 ms
 matrix not stored update host matrix 
Gingko update_host_mtx : 19 ms
matrix is not yet sorted,  sorting host matrix 
Gingko sort_host_mtx_sparsity_pattern : 22 ms
Gingko sort_host_mtx : 14 ms
Gingko init_preconditioner : 0 ms
 get_precond == NULL
Gingko solve : 1021 ms
 copy back
 get iters 
noneompGKOBiCGStab:  Solving for p, Initial residual = 0, Final residual = 9.89724e-07, No Iterations 336
time step continuity errors : sum local = 5.17409e-07, global = -1.15286e-20, cumulative = -1.15286e-20
Gingko init_preconditioner : 0 ms
 get_precond == NULL
Gingko solve : 1050 ms
 copy back
 get iters 
noneompGKOBiCGStab:  Solving for p, Initial residual = 1, Final residual = 9.87561e-07, No Iterations 346
time step continuity errors : sum local = 2.44234e-08, global = -1.05753e-20, cumulative = -2.21039e-20
ExecutionTime = 73.85 s  ClockTime = 4 s

Time = 0.004

Courant Number mean: 0.0720722 max: 0.726639
Gingko init_host_sparsity_pattern : 33 ms
 matrix not stored update host matrix 
Gingko update_host_mtx : 16 ms
matrix is not yet sorted,  sorting host matrix 
Gingko sort_host_mtx_sparsity_pattern : 24 ms
Gingko sort_host_mtx : 12 ms
Gingko init_preconditioner : 0 ms
 get_precond == NULL
Gingko solve : 108 ms
 copy back
 get iters 
noneompGKOBiCGStab:  Solving for Ux, Initial residual = 0.721607, Final residual = 8.09058e-07, No Iterations 37
Gingko init_host_sparsity_pattern : 33 ms
 matrix not stored update host matrix 
Gingko update_host_mtx : 15 ms
matrix is not yet sorted,  sorting host matrix 
Gingko sort_host_mtx_sparsity_pattern : 21 ms
Gingko sort_host_mtx : 12 ms
Gingko init_preconditioner : 0 ms
 get_precond == NULL
Gingko solve : 122 ms
 copy back
 get iters 
noneompGKOBiCGStab:  Solving for Uy, Initial residual = 0.203472, Final residual = 6.58874e-07, No Iterations 42
Gingko init_host_sparsity_pattern : 33 ms
 matrix not stored update host matrix 
Gingko update_host_mtx : 15 ms
matrix is not yet sorted,  sorting host matrix 
Gingko sort_host_mtx_sparsity_pattern : 21 ms
Gingko sort_host_mtx : 12 ms
Gingko init_preconditioner : 0 ms
 get_precond == NULL
Gingko solve : 121 ms
 copy back
 get iters 
noneompGKOBiCGStab:  Solving for Uz, Initial residual = 0.618423, Final residual = 9.29575e-07, No Iterations 39
Gingko init_preconditioner : 0 ms
 get_precond == NULL
Gingko solve : 1051 ms
 copy back
 get iters 
noneompGKOBiCGStab:  Solving for p, Initial residual = 0.536515, Final residual = 7.20943e-07, No Iterations 347
time step continuity errors : sum local = 4.74023e-08, global = -2.07535e-20, cumulative = -4.28575e-20
Gingko init_preconditioner : 0 ms
 get_precond == NULL
Gingko solve : 1009 ms
 copy back
 get iters 
noneompGKOBiCGStab:  Solving for p, Initial residual = 0.673314, Final residual = 9.67946e-07, No Iterations 346
time step continuity errors : sum local = 5.24432e-08, global = -1.1499e-20, cumulative = -5.43565e-20
ExecutionTime = 152.24 s  ClockTime = 7 s

Time = 0.006

Courant Number mean: 0.107408 max: 0.881756
Gingko init_host_sparsity_pattern : 33 ms
 matrix not stored update host matrix 
Gingko update_host_mtx : 17 ms
matrix is not yet sorted,  sorting host matrix 
Gingko sort_host_mtx_sparsity_pattern : 24 ms
Gingko sort_host_mtx : 13 ms
Gingko init_preconditioner : 0 ms
 get_precond == NULL
Gingko solve : 104 ms
 copy back
 get iters 
noneompGKOBiCGStab:  Solving for Ux, Initial residual = 0.598886, Final residual = 9.9062e-07, No Iterations 35
Gingko init_host_sparsity_pattern : 34 ms
 matrix not stored update host matrix 
Gingko update_host_mtx : 16 ms
matrix is not yet sorted,  sorting host matrix 
Gingko sort_host_mtx_sparsity_pattern : 22 ms
Gingko sort_host_mtx : 12 ms
Gingko init_preconditioner : 0 ms
 get_precond == NULL
Gingko solve : 113 ms
 copy back
 get iters 
noneompGKOBiCGStab:  Solving for Uy, Initial residual = 0.0995863, Final residual = 4.72158e-07, No Iterations 38
Gingko init_host_sparsity_pattern : 34 ms
 matrix not stored update host matrix 
Gingko update_host_mtx : 16 ms
matrix is not yet sorted,  sorting host matrix 
Gingko sort_host_mtx_sparsity_pattern : 22 ms
Gingko sort_host_mtx : 12 ms
Gingko init_preconditioner : 0 ms
 get_precond == NULL
Gingko solve : 116 ms
 copy back
 get iters 
noneompGKOBiCGStab:  Solving for Uz, Initial residual = 0.249923, Final residual = 5.51148e-07, No Iterations 39
Gingko init_preconditioner : 0 ms
 get_precond == NULL
Gingko solve : 1020 ms
 copy back
 get iters 
noneompGKOBiCGStab:  Solving for p, Initial residual = 0.542215, Final residual = 9.54705e-07, No Iterations 361
time step continuity errors : sum local = 8.78067e-09, global = 9.68408e-21, cumulative = -4.46724e-20
Gingko init_preconditioner : 0 ms
 get_precond == NULL
Gingko solve : 998 ms
 copy back
 get iters 
noneompGKOBiCGStab:  Solving for p, Initial residual = 0.606907, Final residual = 9.96561e-07, No Iterations 354
time step continuity errors : sum local = 2.11153e-08, global = 1.60348e-20, cumulative = -2.86376e-20
ExecutionTime = 228.78 s  ClockTime = 10 s

Time = 0.008

Courant Number mean: 0.123244 max: 0.890102
Gingko init_host_sparsity_pattern : 32 ms
 matrix not stored update host matrix 
Gingko update_host_mtx : 16 ms
matrix is not yet sorted,  sorting host matrix 
Gingko sort_host_mtx_sparsity_pattern : 21 ms
Gingko sort_host_mtx : 12 ms
Gingko init_preconditioner : 0 ms
 get_precond == NULL
Gingko solve : 90 ms
 copy back
 get iters 
noneompGKOBiCGStab:  Solving for Ux, Initial residual = 0.560824, Final residual = 8.32553e-07, No Iterations 31
Gingko init_host_sparsity_pattern : 34 ms
 matrix not stored update host matrix 
Gingko update_host_mtx : 15 ms
matrix is not yet sorted,  sorting host matrix 
Gingko sort_host_mtx_sparsity_pattern : 21 ms
Gingko sort_host_mtx : 12 ms
Gingko init_preconditioner : 0 ms
 get_precond == NULL
Gingko solve : 102 ms
 copy back
 get iters 
noneompGKOBiCGStab:  Solving for Uy, Initial residual = 0.0341478, Final residual = 5.90038e-07, No Iterations 36
Gingko init_host_sparsity_pattern : 33 ms
 matrix not stored update host matrix 
Gingko update_host_mtx : 16 ms
matrix is not yet sorted,  sorting host matrix 
Gingko sort_host_mtx_sparsity_pattern : 21 ms
Gingko sort_host_mtx : 12 ms
Gingko init_preconditioner : 0 ms
 get_precond == NULL
Gingko solve : 108 ms
 copy back
 get iters 
noneompGKOBiCGStab:  Solving for Uz, Initial residual = 0.132381, Final residual = 5.26151e-07, No Iterations 38
Gingko init_preconditioner : 0 ms
 get_precond == NULL
Gingko solve : 1073 ms
 copy back
 get iters 
noneompGKOBiCGStab:  Solving for p, Initial residual = 0.472969, Final residual = 8.41606e-07, No Iterations 366
time step continuity errors : sum local = 1.30969e-08, global = -1.84937e-20, cumulative = -4.71313e-20
Gingko init_preconditioner : 0 ms
 get_precond == NULL
Gingko solve : 1044 ms
 copy back
 get iters 
noneompGKOBiCGStab:  Solving for p, Initial residual = 0.423061, Final residual = 8.98977e-07, No Iterations 364
time step continuity errors : sum local = 1.95364e-08, global = -7.50555e-21, cumulative = -5.46368e-20
ExecutionTime = 307.37 s  ClockTime = 13 s

Time = 0.01

Courant Number mean: 0.136096 max: 0.906943
Gingko init_host_sparsity_pattern : 32 ms
 matrix not stored update host matrix 
Gingko update_host_mtx : 17 ms
matrix is not yet sorted,  sorting host matrix 
Gingko sort_host_mtx_sparsity_pattern : 24 ms
Gingko sort_host_mtx : 14 ms
Gingko init_preconditioner : 0 ms
 get_precond == NULL
Gingko solve : 88 ms
 copy back
 get iters 
noneompGKOBiCGStab:  Solving for Ux, Initial residual = 0.368413, Final residual = 9.92102e-07, No Iterations 30
Gingko init_host_sparsity_pattern : 33 ms
 matrix not stored update host matrix 
Gingko update_host_mtx : 16 ms
matrix is not yet sorted,  sorting host matrix 
Gingko sort_host_mtx_sparsity_pattern : 21 ms
Gingko sort_host_mtx : 12 ms
Gingko init_preconditioner : 0 ms
 get_precond == NULL
Gingko solve : 94 ms
 copy back
 get iters 
noneompGKOBiCGStab:  Solving for Uy, Initial residual = 0.0230686, Final residual = 8.26627e-07, No Iterations 32
Gingko init_host_sparsity_pattern : 33 ms
 matrix not stored update host matrix 
Gingko update_host_mtx : 15 ms
matrix is not yet sorted,  sorting host matrix 
Gingko sort_host_mtx_sparsity_pattern : 21 ms
Gingko sort_host_mtx : 12 ms
Gingko init_preconditioner : 0 ms
 get_precond == NULL
Gingko solve : 103 ms
 copy back
 get iters 
noneompGKOBiCGStab:  Solving for Uz, Initial residual = 0.0484385, Final residual = 8.34242e-07, No Iterations 35
Gingko init_preconditioner : 0 ms
 get_precond == NULL
Gingko solve : 952 ms
 copy back
 get iters 
noneompGKOBiCGStab:  Solving for p, Initial residual = 0.159193, Final residual = 6.55322e-07, No Iterations 332
time step continuity errors : sum local = 2.75123e-08, global = 5.89982e-20, cumulative = 4.36132e-21
Gingko init_preconditioner : 0 ms
 get_precond == NULL
Gingko solve : 887 ms
 copy back
 get iters 
noneompGKOBiCGStab:  Solving for p, Initial residual = 0.361669, Final residual = 4.76333e-07, No Iterations 327
time step continuity errors : sum local = 2.94006e-08, global = 4.34972e-20, cumulative = 4.78585e-20
ExecutionTime = 376.62 s  ClockTime = 15 s

End

