/*---------------------------------------------------------------------------*\
  =========                 |
  \\      /  F ield         | OpenFOAM: The Open Source CFD Toolbox
   \\    /   O peration     | Website:  https://openfoam.org
    \\  /    A nd           | Version:  8
     \\/     M anipulation  |
\*---------------------------------------------------------------------------*/
Build  : 8-13d66902f78c
Exec   : icoFoam
Date   : Jun 24 2021
Time   : 11:29:42
Host   : "uc2n428.localdomain"
PID    : 3986613
I/O    : uncollated
Case   : /pfs/data5/home/kit/scc/nq7776/code/OGL_DATA/lidDrivenCavity3D/v0.1-113-g8300f3e/f584ccac99/IntelXeonGold6230CPU@2.10GHz/Test_2021-06-24-11:01:02/50/p-BiCGStab-GKO-none-omp/lidDrivenCavity3D
nProcs : 1
sigFpe : Enabling floating point exception trapping (FOAM_SIGFPE).
fileModificationChecking : Monitoring run-time modified files using timeStampMaster (fileModificationSkew 10)
allowSystemOperations : Allowing user-supplied system call operations

// * * * * * * * * * * * * * * * * * * * * * * * * * * * * * * * * * * * * * //
Create time

Create mesh for time = 0

Reading transportProperties

Reading field p

Reading field U

Reading/calculating face flux field phi


Starting time loop

Time = 0.002

Courant Number mean: 0 max: 0
nonePBiCGStab:  Solving for Ux, Initial residual = 1, Final residual = 0.0592055, No Iterations 5
nonePBiCGStab:  Solving for Uy, Initial residual = 0, Final residual = 0, No Iterations 0
nonePBiCGStab:  Solving for Uz, Initial residual = 0, Final residual = 0, No Iterations 0
Gingko init_host_sparsity_pattern : 35 ms
 matrix not stored update host matrix 
Gingko update_host_mtx : 18 ms
matrix is not yet sorted, compute sorting idxs 
 compute sorting idxs 860000
Gingko compute_sort : 993 ms
matrix is not yet sorted,  sorting host matrix 
Gingko sort_host_mtx_sparsity_pattern : 24 ms
Gingko sort_host_mtx : 15 ms
Gingko init_preconditioner : 0 ms
 get_precond == NULL
Gingko solve : 1695 ms
 copy back
 get iters 
noneompGKOBiCGStab:  Solving for p, Initial residual = 0, Final residual = 5.67034e-07, No Iterations 354
time step continuity errors : sum local = 5.27309e-08, global = -1.86554e-20, cumulative = -1.86554e-20
Gingko init_preconditioner : 0 ms
 get_precond == NULL
Gingko solve : 1571 ms
 copy back
 get iters 
noneompGKOBiCGStab:  Solving for p, Initial residual = 1, Final residual = 9.05482e-07, No Iterations 335
time step continuity errors : sum local = 1.32592e-07, global = 2.59942e-21, cumulative = -1.6056e-20
ExecutionTime = 8.27 s  ClockTime = 5 s

Time = 0.004

Courant Number mean: 0.0636234 max: 0.723792
nonePBiCGStab:  Solving for Ux, Initial residual = 0.144136, Final residual = 0.0219212, No Iterations 5
nonePBiCGStab:  Solving for Uy, Initial residual = 0.36393, Final residual = 0.0523077, No Iterations 5
nonePBiCGStab:  Solving for Uz, Initial residual = 0.973119, Final residual = 0.159194, No Iterations 5
Gingko init_preconditioner : 0 ms
 get_precond == NULL
Gingko solve : 1642 ms
 copy back
 get iters 
noneompGKOBiCGStab:  Solving for p, Initial residual = 0.676702, Final residual = 1.71129e-07, No Iterations 350
time step continuity errors : sum local = 5.7515e-08, global = 2.28717e-20, cumulative = 6.81571e-21
Gingko init_preconditioner : 0 ms
 get_precond == NULL
Gingko solve : 1647 ms
 copy back
 get iters 
noneompGKOBiCGStab:  Solving for p, Initial residual = 0.668497, Final residual = 9.1723e-07, No Iterations 351
time step continuity errors : sum local = 1.43036e-08, global = 1.38667e-20, cumulative = 2.06824e-20
ExecutionTime = 14.98 s  ClockTime = 8 s

Time = 0.006

Courant Number mean: 0.0972272 max: 0.862514
nonePBiCGStab:  Solving for Ux, Initial residual = 0.0524136, Final residual = 0.00685419, No Iterations 5
nonePBiCGStab:  Solving for Uy, Initial residual = 0.127073, Final residual = 0.0201321, No Iterations 5
nonePBiCGStab:  Solving for Uz, Initial residual = 0.366338, Final residual = 0.0531252, No Iterations 5
Gingko init_preconditioner : 0 ms
 get_precond == NULL
Gingko solve : 1681 ms
 copy back
 get iters 
noneompGKOBiCGStab:  Solving for p, Initial residual = 0.584664, Final residual = 8.01843e-07, No Iterations 361
time step continuity errors : sum local = 1.0802e-08, global = 2.47435e-20, cumulative = 4.54259e-20
Gingko init_preconditioner : 0 ms
 get_precond == NULL
Gingko solve : 1609 ms
 copy back
 get iters 
noneompGKOBiCGStab:  Solving for p, Initial residual = 0.594556, Final residual = 2.98437e-07, No Iterations 345
time step continuity errors : sum local = 2.14122e-08, global = 1.34469e-20, cumulative = 5.88729e-20
ExecutionTime = 21.69 s  ClockTime = 12 s

Time = 0.008

Courant Number mean: 0.113793 max: 0.88248
nonePBiCGStab:  Solving for Ux, Initial residual = 0.0289534, Final residual = 0.00344452, No Iterations 5
nonePBiCGStab:  Solving for Uy, Initial residual = 0.0844336, Final residual = 0.0109219, No Iterations 5
nonePBiCGStab:  Solving for Uz, Initial residual = 0.229403, Final residual = 0.0299777, No Iterations 5
Gingko init_preconditioner : 0 ms
 get_precond == NULL
Gingko solve : 1642 ms
 copy back
 get iters 
noneompGKOBiCGStab:  Solving for p, Initial residual = 0.528731, Final residual = 9.00132e-07, No Iterations 354
time step continuity errors : sum local = 5.38936e-09, global = -4.37591e-20, cumulative = 1.51137e-20
Gingko init_preconditioner : 0 ms
 get_precond == NULL
Gingko solve : 1657 ms
 copy back
 get iters 
noneompGKOBiCGStab:  Solving for p, Initial residual = 0.411447, Final residual = 4.9024e-07, No Iterations 352
time step continuity errors : sum local = 1.08166e-08, global = -6.40551e-21, cumulative = 8.70823e-21
ExecutionTime = 28.42 s  ClockTime = 15 s

Time = 0.01

Courant Number mean: 0.127339 max: 0.898876
nonePBiCGStab:  Solving for Ux, Initial residual = 0.0202755, Final residual = 0.00208488, No Iterations 5
nonePBiCGStab:  Solving for Uy, Initial residual = 0.0505617, Final residual = 0.00623864, No Iterations 5
nonePBiCGStab:  Solving for Uz, Initial residual = 0.112996, Final residual = 0.0181166, No Iterations 5
Gingko init_preconditioner : 0 ms
 get_precond == NULL
Gingko solve : 1542 ms
 copy back
 get iters 
noneompGKOBiCGStab:  Solving for p, Initial residual = 0.342689, Final residual = 9.43756e-07, No Iterations 332
time step continuity errors : sum local = 8.87013e-09, global = -1.29656e-20, cumulative = -4.25734e-21
Gingko init_preconditioner : 0 ms
 get_precond == NULL
Gingko solve : 1535 ms
 copy back
 get iters 
noneompGKOBiCGStab:  Solving for p, Initial residual = 0.354052, Final residual = 9.43032e-07, No Iterations 328
time step continuity errors : sum local = 1.37789e-08, global = 2.49144e-21, cumulative = -1.7659e-21
ExecutionTime = 34.7 s  ClockTime = 18 s

End

