/*---------------------------------------------------------------------------*\
  =========                 |
  \\      /  F ield         | OpenFOAM: The Open Source CFD Toolbox
   \\    /   O peration     | Website:  https://openfoam.org
    \\  /    A nd           | Version:  8
     \\/     M anipulation  |
\*---------------------------------------------------------------------------*/
Build  : 8-13d66902f78c
Exec   : icoFoam
Date   : Jun 26 2021
Time   : 23:54:04
Host   : "uc2n395.localdomain"
PID    : 476728
I/O    : uncollated
Case   : /pfs/data5/home/kit/scc/nq7776/code/OGL_DATA/lidDrivenCavity3D/v0.1-117-g6793da2/f584ccac99/IntelXeonGold6230CPU@2.10GHz/Test_2021-06-26-23:28:53/50/p-U-CG-GKO-none-omp/lidDrivenCavity3D
nProcs : 1
sigFpe : Enabling floating point exception trapping (FOAM_SIGFPE).
fileModificationChecking : Monitoring run-time modified files using timeStampMaster (fileModificationSkew 10)
allowSystemOperations : Allowing user-supplied system call operations

// * * * * * * * * * * * * * * * * * * * * * * * * * * * * * * * * * * * * * //
Create time

Create mesh for time = 0

Reading transportProperties

Reading field p

Reading field U

Reading/calculating face flux field phi


Starting time loop

Time = 0.002

Courant Number mean: 0 max: 0
Gingko init_host_sparsity_pattern : 35 ms
 matrix not stored update host matrix 
Gingko update_host_mtx : 18 ms
matrix is not yet sorted, compute sorting idxs 
 compute sorting idxs 860000
Gingko compute_sort : 994 ms
matrix is not yet sorted,  sorting host matrix 
Gingko sort_host_mtx_sparsity_pattern : 24 ms
Gingko sort_host_mtx : 15 ms
Gingko init_preconditioner : 0 ms
 get_precond == NULL
Gingko solve : 244 ms
 copy back
 get iters 
noneompGKOBiCGStab:  Solving for Ux, Initial residual = 0, Final residual = 8.72813e-07, No Iterations 41
Gingko init_host_sparsity_pattern : 35 ms
 matrix not stored update host matrix 
Gingko update_host_mtx : 18 ms
matrix is not yet sorted,  sorting host matrix 
Gingko sort_host_mtx_sparsity_pattern : 23 ms
Gingko sort_host_mtx : 12 ms
Gingko init_preconditioner : 0 ms
 get_precond == NULL
Gingko solve : 3 ms
 copy back
 get iters 
noneompGKOBiCGStab:  Solving for Uy, Initial residual = 1, Final residual = 0, No Iterations 0
Gingko init_host_sparsity_pattern : 34 ms
 matrix not stored update host matrix 
Gingko update_host_mtx : 15 ms
matrix is not yet sorted,  sorting host matrix 
Gingko sort_host_mtx_sparsity_pattern : 23 ms
Gingko sort_host_mtx : 12 ms
Gingko init_preconditioner : 0 ms
 get_precond == NULL
Gingko solve : 2 ms
 copy back
 get iters 
noneompGKOBiCGStab:  Solving for Uz, Initial residual = 0, Final residual = 0, No Iterations 0
Gingko init_host_sparsity_pattern : 32 ms
 matrix not stored update host matrix 
Gingko update_host_mtx : 18 ms
matrix is not yet sorted,  sorting host matrix 
Gingko sort_host_mtx_sparsity_pattern : 22 ms
Gingko sort_host_mtx : 14 ms
Gingko init_preconditioner : 0 ms
 get_precond == NULL
Gingko solve : 861 ms
 copy back
 get iters 
noneompGKOCG:  Solving for p, Initial residual = 0, Final residual = 9.15244e-07, No Iterations 444
time step continuity errors : sum local = 1.50703e-09, global = -3.25059e-21, cumulative = -3.25059e-21
Gingko init_preconditioner : 0 ms
 get_precond == NULL
Gingko solve : 836 ms
 copy back
 get iters 
noneompGKOCG:  Solving for p, Initial residual = 1, Final residual = 9.50319e-07, No Iterations 440
time step continuity errors : sum local = 2.07469e-09, global = 1.38266e-20, cumulative = 1.0576e-20
ExecutionTime = 128.36 s  ClockTime = 4 s

Time = 0.004

Courant Number mean: 0.0720722 max: 0.726639
Gingko init_host_sparsity_pattern : 32 ms
 matrix not stored update host matrix 
Gingko update_host_mtx : 16 ms
matrix is not yet sorted,  sorting host matrix 
Gingko sort_host_mtx_sparsity_pattern : 24 ms
Gingko sort_host_mtx : 12 ms
Gingko init_preconditioner : 0 ms
 get_precond == NULL
Gingko solve : 132 ms
 copy back
 get iters 
noneompGKOBiCGStab:  Solving for Ux, Initial residual = 0.721583, Final residual = 7.25467e-07, No Iterations 35
Gingko init_host_sparsity_pattern : 34 ms
 matrix not stored update host matrix 
Gingko update_host_mtx : 15 ms
matrix is not yet sorted,  sorting host matrix 
Gingko sort_host_mtx_sparsity_pattern : 21 ms
Gingko sort_host_mtx : 12 ms
Gingko init_preconditioner : 0 ms
 get_precond == NULL
Gingko solve : 151 ms
 copy back
 get iters 
noneompGKOBiCGStab:  Solving for Uy, Initial residual = 0.203465, Final residual = 3.54981e-07, No Iterations 40
Gingko init_host_sparsity_pattern : 34 ms
 matrix not stored update host matrix 
Gingko update_host_mtx : 15 ms
matrix is not yet sorted,  sorting host matrix 
Gingko sort_host_mtx_sparsity_pattern : 21 ms
Gingko sort_host_mtx : 12 ms
Gingko init_preconditioner : 0 ms
 get_precond == NULL
Gingko solve : 146 ms
 copy back
 get iters 
noneompGKOBiCGStab:  Solving for Uz, Initial residual = 0.618431, Final residual = 6.84974e-07, No Iterations 39
Gingko init_preconditioner : 0 ms
 get_precond == NULL
Gingko solve : 831 ms
 copy back
 get iters 
noneompGKOCG:  Solving for p, Initial residual = 0.536266, Final residual = 9.94184e-07, No Iterations 433
time step continuity errors : sum local = 2.35807e-09, global = 5.38289e-21, cumulative = 1.59589e-20
Gingko init_preconditioner : 0 ms
 get_precond == NULL
Gingko solve : 843 ms
 copy back
 get iters 
noneompGKOCG:  Solving for p, Initial residual = 0.673318, Final residual = 9.87463e-07, No Iterations 433
time step continuity errors : sum local = 2.40384e-09, global = -6.25062e-21, cumulative = 9.70831e-21
ExecutionTime = 265.39 s  ClockTime = 7 s

Time = 0.006

Courant Number mean: 0.107408 max: 0.881754
Gingko init_host_sparsity_pattern : 32 ms
 matrix not stored update host matrix 
Gingko update_host_mtx : 17 ms
matrix is not yet sorted,  sorting host matrix 
Gingko sort_host_mtx_sparsity_pattern : 23 ms
Gingko sort_host_mtx : 12 ms
Gingko init_preconditioner : 0 ms
 get_precond == NULL
Gingko solve : 126 ms
 copy back
 get iters 
noneompGKOBiCGStab:  Solving for Ux, Initial residual = 0.598888, Final residual = 9.45862e-07, No Iterations 35
Gingko init_host_sparsity_pattern : 34 ms
 matrix not stored update host matrix 
Gingko update_host_mtx : 15 ms
matrix is not yet sorted,  sorting host matrix 
Gingko sort_host_mtx_sparsity_pattern : 21 ms
Gingko sort_host_mtx : 12 ms
Gingko init_preconditioner : 0 ms
 get_precond == NULL
Gingko solve : 126 ms
 copy back
 get iters 
noneompGKOBiCGStab:  Solving for Uy, Initial residual = 0.0995684, Final residual = 8.19489e-07, No Iterations 35
Gingko init_host_sparsity_pattern : 34 ms
 matrix not stored update host matrix 
Gingko update_host_mtx : 16 ms
matrix is not yet sorted,  sorting host matrix 
Gingko sort_host_mtx_sparsity_pattern : 21 ms
Gingko sort_host_mtx : 12 ms
Gingko init_preconditioner : 0 ms
 get_precond == NULL
Gingko solve : 146 ms
 copy back
 get iters 
noneompGKOBiCGStab:  Solving for Uz, Initial residual = 0.249971, Final residual = 9.63209e-07, No Iterations 40
Gingko init_preconditioner : 0 ms
 get_precond == NULL
Gingko solve : 825 ms
 copy back
 get iters 
noneompGKOCG:  Solving for p, Initial residual = 0.540977, Final residual = 9.16358e-07, No Iterations 437
time step continuity errors : sum local = 1.56039e-09, global = -3.0187e-20, cumulative = -2.04787e-20
Gingko init_preconditioner : 0 ms
 get_precond == NULL
Gingko solve : 839 ms
 copy back
 get iters 
noneompGKOCG:  Solving for p, Initial residual = 0.606885, Final residual = 9.48107e-07, No Iterations 436
time step continuity errors : sum local = 1.5606e-09, global = -7.64039e-21, cumulative = -2.81191e-20
ExecutionTime = 399.89 s  ClockTime = 9 s

Time = 0.008

Courant Number mean: 0.123244 max: 0.890102
Gingko init_host_sparsity_pattern : 32 ms
 matrix not stored update host matrix 
Gingko update_host_mtx : 15 ms
matrix is not yet sorted,  sorting host matrix 
Gingko sort_host_mtx_sparsity_pattern : 21 ms
Gingko sort_host_mtx : 12 ms
Gingko init_preconditioner : 0 ms
 get_precond == NULL
Gingko solve : 115 ms
 copy back
 get iters 
noneompGKOBiCGStab:  Solving for Ux, Initial residual = 0.560841, Final residual = 8.4676e-07, No Iterations 31
Gingko init_host_sparsity_pattern : 34 ms
 matrix not stored update host matrix 
Gingko update_host_mtx : 16 ms
matrix is not yet sorted,  sorting host matrix 
Gingko sort_host_mtx_sparsity_pattern : 21 ms
Gingko sort_host_mtx : 12 ms
Gingko init_preconditioner : 0 ms
 get_precond == NULL
Gingko solve : 131 ms
 copy back
 get iters 
noneompGKOBiCGStab:  Solving for Uy, Initial residual = 0.0341422, Final residual = 7.50658e-07, No Iterations 36
Gingko init_host_sparsity_pattern : 34 ms
 matrix not stored update host matrix 
Gingko update_host_mtx : 16 ms
matrix is not yet sorted,  sorting host matrix 
Gingko sort_host_mtx_sparsity_pattern : 21 ms
Gingko sort_host_mtx : 12 ms
Gingko init_preconditioner : 0 ms
 get_precond == NULL
Gingko solve : 139 ms
 copy back
 get iters 
noneompGKOBiCGStab:  Solving for Uz, Initial residual = 0.132381, Final residual = 3.71049e-07, No Iterations 38
Gingko init_preconditioner : 0 ms
 get_precond == NULL
Gingko solve : 837 ms
 copy back
 get iters 
noneompGKOCG:  Solving for p, Initial residual = 0.471965, Final residual = 9.2454e-07, No Iterations 435
time step continuity errors : sum local = 1.45975e-09, global = -4.04431e-21, cumulative = -3.21634e-20
Gingko init_preconditioner : 0 ms
 get_precond == NULL
Gingko solve : 835 ms
 copy back
 get iters 
noneompGKOCG:  Solving for p, Initial residual = 0.423037, Final residual = 9.82228e-07, No Iterations 433
time step continuity errors : sum local = 1.57325e-09, global = 4.96173e-21, cumulative = -2.72016e-20
ExecutionTime = 534 s  ClockTime = 12 s

Time = 0.01

Courant Number mean: 0.136096 max: 0.906942
Gingko init_host_sparsity_pattern : 32 ms
 matrix not stored update host matrix 
Gingko update_host_mtx : 15 ms
matrix is not yet sorted,  sorting host matrix 
Gingko sort_host_mtx_sparsity_pattern : 21 ms
Gingko sort_host_mtx : 12 ms
Gingko init_preconditioner : 0 ms
 get_precond == NULL
Gingko solve : 107 ms
 copy back
 get iters 
noneompGKOBiCGStab:  Solving for Ux, Initial residual = 0.368377, Final residual = 9.71395e-07, No Iterations 29
Gingko init_host_sparsity_pattern : 34 ms
 matrix not stored update host matrix 
Gingko update_host_mtx : 16 ms
matrix is not yet sorted,  sorting host matrix 
Gingko sort_host_mtx_sparsity_pattern : 21 ms
Gingko sort_host_mtx : 12 ms
Gingko init_preconditioner : 0 ms
 get_precond == NULL
Gingko solve : 118 ms
 copy back
 get iters 
noneompGKOBiCGStab:  Solving for Uy, Initial residual = 0.0230738, Final residual = 8.23378e-07, No Iterations 32
Gingko init_host_sparsity_pattern : 34 ms
 matrix not stored update host matrix 
Gingko update_host_mtx : 15 ms
matrix is not yet sorted,  sorting host matrix 
Gingko sort_host_mtx_sparsity_pattern : 21 ms
Gingko sort_host_mtx : 12 ms
Gingko init_preconditioner : 0 ms
 get_precond == NULL
Gingko solve : 130 ms
 copy back
 get iters 
noneompGKOBiCGStab:  Solving for Uz, Initial residual = 0.0484113, Final residual = 9.82599e-07, No Iterations 36
Gingko init_preconditioner : 0 ms
 get_precond == NULL
Gingko solve : 827 ms
 copy back
 get iters 
noneompGKOCG:  Solving for p, Initial residual = 0.159034, Final residual = 9.27266e-07, No Iterations 434
time step continuity errors : sum local = 1.26696e-09, global = -2.47585e-20, cumulative = -5.19601e-20
Gingko init_preconditioner : 0 ms
 get_precond == NULL
Gingko solve : 819 ms
 copy back
 get iters 
noneompGKOCG:  Solving for p, Initial residual = 0.361666, Final residual = 9.51881e-07, No Iterations 433
time step continuity errors : sum local = 1.28895e-09, global = -5.90068e-20, cumulative = -1.10967e-19
ExecutionTime = 664.6 s  ClockTime = 14 s

End

