/*---------------------------------------------------------------------------*\
  =========                 |
  \\      /  F ield         | OpenFOAM: The Open Source CFD Toolbox
   \\    /   O peration     | Website:  https://openfoam.org
    \\  /    A nd           | Version:  8
     \\/     M anipulation  |
\*---------------------------------------------------------------------------*/
Build  : 8-13d66902f78c
Exec   : icoFoam
Date   : Jun 27 2021
Time   : 23:58:31
Host   : "uc2n471.localdomain"
PID    : 737100
I/O    : uncollated
Case   : /pfs/data5/home/kit/scc/nq7776/code/OGL_DATA/lidDrivenCavity3D/v0.1-118-gbd9d99d/f584ccac99/IntelXeonGold6230CPU@2.10GHz/Test_2021-06-27-23:54:51/50/p-U-BiCGStab-OF-none-reference/lidDrivenCavity3D
nProcs : 1
sigFpe : Enabling floating point exception trapping (FOAM_SIGFPE).
fileModificationChecking : Monitoring run-time modified files using timeStampMaster (fileModificationSkew 10)
allowSystemOperations : Allowing user-supplied system call operations

// * * * * * * * * * * * * * * * * * * * * * * * * * * * * * * * * * * * * * //
Create time

Create mesh for time = 0

Reading transportProperties

Reading field p

Reading field U

Reading/calculating face flux field phi


Starting time loop

Time = 0.002

Courant Number mean: 0 max: 0
nonePBiCGStab:  Solving for Ux, Initial residual = 1, Final residual = 8.74541e-07, No Iterations 42
nonePBiCGStab:  Solving for Uy, Initial residual = 0, Final residual = 0, No Iterations 0
nonePBiCGStab:  Solving for Uz, Initial residual = 0, Final residual = 0, No Iterations 0
nonePBiCGStab:  Solving for p, Initial residual = 1, Final residual = 8.94009e-07, No Iterations 351
time step continuity errors : sum local = 2.94389e-09, global = 2.02087e-20, cumulative = 2.02087e-20
nonePBiCGStab:  Solving for p, Initial residual = 0.721585, Final residual = 8.19299e-07, No Iterations 347
time step continuity errors : sum local = 3.57701e-09, global = 1.15036e-20, cumulative = 3.17123e-20
ExecutionTime = 2.67 s  ClockTime = 3 s

Time = 0.004

Courant Number mean: 0.0720722 max: 0.726639
nonePBiCGStab:  Solving for Ux, Initial residual = 0.15183, Final residual = 9.88467e-07, No Iterations 36
nonePBiCGStab:  Solving for Uy, Initial residual = 0.353387, Final residual = 9.80442e-07, No Iterations 38
nonePBiCGStab:  Solving for Uz, Initial residual = 0.977967, Final residual = 6.33784e-07, No Iterations 41
nonePBiCGStab:  Solving for p, Initial residual = 0.67358, Final residual = 9.86855e-07, No Iterations 347
time step continuity errors : sum local = 4.68252e-09, global = 2.70573e-20, cumulative = 5.87695e-20
nonePBiCGStab:  Solving for p, Initial residual = 0.598429, Final residual = 8.77609e-07, No Iterations 342
time step continuity errors : sum local = 4.27573e-09, global = -2.82234e-20, cumulative = 3.05462e-20
ExecutionTime = 5.05 s  ClockTime = 5 s

Time = 0.006

Courant Number mean: 0.107408 max: 0.881779
nonePBiCGStab:  Solving for Ux, Initial residual = 0.0527346, Final residual = 9.76122e-07, No Iterations 33
nonePBiCGStab:  Solving for Uy, Initial residual = 0.117604, Final residual = 9.47419e-07, No Iterations 34
nonePBiCGStab:  Solving for Uz, Initial residual = 0.456641, Final residual = 8.09984e-07, No Iterations 39
nonePBiCGStab:  Solving for p, Initial residual = 0.600424, Final residual = 4.21411e-07, No Iterations 376
time step continuity errors : sum local = 1.40464e-09, global = -3.22863e-20, cumulative = -1.74014e-21
nonePBiCGStab:  Solving for p, Initial residual = 0.551192, Final residual = 9.68698e-07, No Iterations 370
time step continuity errors : sum local = 3.11749e-09, global = 2.25575e-21, cumulative = 5.15618e-22
ExecutionTime = 7.56 s  ClockTime = 8 s

Time = 0.008

Courant Number mean: 0.123246 max: 0.890085
nonePBiCGStab:  Solving for Ux, Initial residual = 0.0254322, Final residual = 8.1382e-07, No Iterations 31
nonePBiCGStab:  Solving for Uy, Initial residual = 0.0796799, Final residual = 9.52173e-07, No Iterations 34
nonePBiCGStab:  Solving for Uz, Initial residual = 0.25228, Final residual = 9.17335e-07, No Iterations 38
nonePBiCGStab:  Solving for p, Initial residual = 0.384619, Final residual = 1.43737e-07, No Iterations 334
time step continuity errors : sum local = 4.2604e-10, global = -5.71009e-21, cumulative = -5.19447e-21
nonePBiCGStab:  Solving for p, Initial residual = 0.324397, Final residual = 9.48788e-07, No Iterations 344
time step continuity errors : sum local = 2.85833e-09, global = -1.22975e-20, cumulative = -1.7492e-20
ExecutionTime = 9.85 s  ClockTime = 10 s

Time = 0.01

Courant Number mean: 0.136097 max: 0.906812
nonePBiCGStab:  Solving for Ux, Initial residual = 0.0177743, Final residual = 8.08898e-07, No Iterations 30
nonePBiCGStab:  Solving for Uy, Initial residual = 0.0389403, Final residual = 8.27997e-07, No Iterations 32
nonePBiCGStab:  Solving for Uz, Initial residual = 0.0851101, Final residual = 9.62055e-07, No Iterations 34
nonePBiCGStab:  Solving for p, Initial residual = 0.290083, Final residual = 6.66847e-07, No Iterations 347
time step continuity errors : sum local = 1.12796e-09, global = 1.61555e-20, cumulative = -1.33652e-21
nonePBiCGStab:  Solving for p, Initial residual = 0.24865, Final residual = 8.18283e-07, No Iterations 354
time step continuity errors : sum local = 1.21698e-09, global = -1.05683e-20, cumulative = -1.19049e-20
ExecutionTime = 12.21 s  ClockTime = 12 s

End

