/*---------------------------------------------------------------------------*\
  =========                 |
  \\      /  F ield         | OpenFOAM: The Open Source CFD Toolbox
   \\    /   O peration     | Website:  https://openfoam.org
    \\  /    A nd           | Version:  8
     \\/     M anipulation  |
\*---------------------------------------------------------------------------*/
Build  : 8-13d66902f78c
Exec   : icoFoam
Date   : Jun 24 2021
Time   : 11:35:44
Host   : "uc2n428.localdomain"
PID    : 3987764
I/O    : uncollated
Case   : /pfs/data5/home/kit/scc/nq7776/code/OGL_DATA/lidDrivenCavity3D/v0.1-113-g8300f3e/f584ccac99/IntelXeonGold6230CPU@2.10GHz/Test_2021-06-24-11:01:02/50/p-BiCGStab-GKO-none-omp/lidDrivenCavity3D
nProcs : 1
sigFpe : Enabling floating point exception trapping (FOAM_SIGFPE).
fileModificationChecking : Monitoring run-time modified files using timeStampMaster (fileModificationSkew 10)
allowSystemOperations : Allowing user-supplied system call operations

// * * * * * * * * * * * * * * * * * * * * * * * * * * * * * * * * * * * * * //
Create time

Create mesh for time = 0

Reading transportProperties

Reading field p

Reading field U

Reading/calculating face flux field phi


Starting time loop

Time = 0.002

Courant Number mean: 0 max: 0
nonePBiCGStab:  Solving for Ux, Initial residual = 1, Final residual = 0.0592055, No Iterations 5
nonePBiCGStab:  Solving for Uy, Initial residual = 0, Final residual = 0, No Iterations 0
nonePBiCGStab:  Solving for Uz, Initial residual = 0, Final residual = 0, No Iterations 0
Gingko init_host_sparsity_pattern : 35 ms
 matrix not stored update host matrix 
Gingko update_host_mtx : 18 ms
matrix is not yet sorted, compute sorting idxs 
 compute sorting idxs 860000
Gingko compute_sort : 995 ms
matrix is not yet sorted,  sorting host matrix 
Gingko sort_host_mtx_sparsity_pattern : 23 ms
Gingko sort_host_mtx : 15 ms
Gingko init_preconditioner : 0 ms
 get_precond == NULL
Gingko solve : 1249 ms
 copy back
 get iters 
noneompGKOBiCGStab:  Solving for p, Initial residual = 0, Final residual = 5.67034e-07, No Iterations 354
time step continuity errors : sum local = 2.46652e-07, global = -1.86769e-20, cumulative = -1.86769e-20
Gingko init_preconditioner : 0 ms
 get_precond == NULL
Gingko solve : 1164 ms
 copy back
 get iters 
noneompGKOBiCGStab:  Solving for p, Initial residual = 1, Final residual = 3.62468e-07, No Iterations 343
time step continuity errors : sum local = 5.18276e-07, global = -2.25962e-20, cumulative = -4.12731e-20
ExecutionTime = 156.1 s  ClockTime = 4 s

Time = 0.004

Courant Number mean: 0.0636234 max: 0.723792
nonePBiCGStab:  Solving for Ux, Initial residual = 0.144133, Final residual = 0.0219201, No Iterations 5
nonePBiCGStab:  Solving for Uy, Initial residual = 0.363933, Final residual = 0.0524259, No Iterations 5
nonePBiCGStab:  Solving for Uz, Initial residual = 0.972641, Final residual = 0.15982, No Iterations 5
Gingko init_preconditioner : 0 ms
 get_precond == NULL
Gingko solve : 1114 ms
 copy back
 get iters 
noneompGKOBiCGStab:  Solving for p, Initial residual = 0.676723, Final residual = 9.81826e-07, No Iterations 359
time step continuity errors : sum local = 1.63367e-07, global = -1.73005e-20, cumulative = -5.85736e-20
Gingko init_preconditioner : 0 ms
 get_precond == NULL
Gingko solve : 1114 ms
 copy back
 get iters 
noneompGKOBiCGStab:  Solving for p, Initial residual = 0.668436, Final residual = 9.41158e-07, No Iterations 354
time step continuity errors : sum local = 2.80812e-07, global = -1.86465e-20, cumulative = -7.72202e-20
ExecutionTime = 299.03 s  ClockTime = 6 s

Time = 0.006

Courant Number mean: 0.0972241 max: 0.862509
nonePBiCGStab:  Solving for Ux, Initial residual = 0.0524112, Final residual = 0.00685471, No Iterations 5
nonePBiCGStab:  Solving for Uy, Initial residual = 0.127113, Final residual = 0.0201681, No Iterations 5
nonePBiCGStab:  Solving for Uz, Initial residual = 0.366362, Final residual = 0.0534805, No Iterations 5
Gingko init_preconditioner : 0 ms
 get_precond == NULL
Gingko solve : 1098 ms
 copy back
 get iters 
noneompGKOBiCGStab:  Solving for p, Initial residual = 0.584609, Final residual = 7.04762e-07, No Iterations 352
time step continuity errors : sum local = 2.39085e-08, global = 2.79619e-21, cumulative = -7.4424e-20
Gingko init_preconditioner : 0 ms
 get_precond == NULL
Gingko solve : 1088 ms
 copy back
 get iters 
noneompGKOBiCGStab:  Solving for p, Initial residual = 0.594538, Final residual = 9.70065e-07, No Iterations 349
time step continuity errors : sum local = 1.77741e-08, global = -3.29115e-20, cumulative = -1.07335e-19
ExecutionTime = 439.28 s  ClockTime = 8 s

Time = 0.008

Courant Number mean: 0.113791 max: 0.882478
nonePBiCGStab:  Solving for Ux, Initial residual = 0.0289555, Final residual = 0.00344492, No Iterations 5
nonePBiCGStab:  Solving for Uy, Initial residual = 0.0844389, Final residual = 0.010902, No Iterations 5
nonePBiCGStab:  Solving for Uz, Initial residual = 0.229776, Final residual = 0.0307612, No Iterations 5
Gingko init_preconditioner : 0 ms
 get_precond == NULL
Gingko solve : 1085 ms
 copy back
 get iters 
noneompGKOBiCGStab:  Solving for p, Initial residual = 0.528707, Final residual = 8.85819e-07, No Iterations 348
time step continuity errors : sum local = 4.50253e-07, global = 1.44126e-20, cumulative = -9.29228e-20
Gingko init_preconditioner : 0 ms
 get_precond == NULL
Gingko solve : 1131 ms
 copy back
 get iters 
noneompGKOBiCGStab:  Solving for p, Initial residual = 0.411378, Final residual = 8.46806e-07, No Iterations 363
time step continuity errors : sum local = 1.60887e-07, global = -9.72693e-21, cumulative = -1.0265e-19
ExecutionTime = 581.47 s  ClockTime = 11 s

Time = 0.01

Courant Number mean: 0.127337 max: 0.898877
nonePBiCGStab:  Solving for Ux, Initial residual = 0.0202761, Final residual = 0.00208655, No Iterations 5
nonePBiCGStab:  Solving for Uy, Initial residual = 0.0505608, Final residual = 0.006271, No Iterations 5
nonePBiCGStab:  Solving for Uz, Initial residual = 0.113314, Final residual = 0.0190308, No Iterations 5
Gingko init_preconditioner : 0 ms
 get_precond == NULL
Gingko solve : 1046 ms
 copy back
 get iters 
noneompGKOBiCGStab:  Solving for p, Initial residual = 0.342738, Final residual = 7.8417e-07, No Iterations 335
time step continuity errors : sum local = 3.65683e-07, global = -4.08086e-21, cumulative = -1.06731e-19
Gingko init_preconditioner : 0 ms
 get_precond == NULL
Gingko solve : 1068 ms
 copy back
 get iters 
noneompGKOBiCGStab:  Solving for p, Initial residual = 0.354207, Final residual = 9.99971e-07, No Iterations 335
time step continuity errors : sum local = 6.76208e-09, global = -2.77378e-20, cumulative = -1.34468e-19
ExecutionTime = 717.07 s  ClockTime = 13 s

End

