/*---------------------------------------------------------------------------*\
  =========                 |
  \\      /  F ield         | OpenFOAM: The Open Source CFD Toolbox
   \\    /   O peration     | Website:  https://openfoam.org
    \\  /    A nd           | Version:  8
     \\/     M anipulation  |
\*---------------------------------------------------------------------------*/
Build  : 8-13d66902f78c
Exec   : icoFoam
Date   : Jun 26 2021
Time   : 23:31:48
Host   : "uc2n442.localdomain"
PID    : 1058557
I/O    : uncollated
Case   : /pfs/data5/home/kit/scc/nq7776/code/OGL_DATA/lidDrivenCavity3D/v0.1-117-g6793da2/f584ccac99/IntelXeonGold6230CPU@2.10GHz/Test_2021-06-26-23:01:02/50/p-BiCGStab-GKO-none-omp/lidDrivenCavity3D
nProcs : 1
sigFpe : Enabling floating point exception trapping (FOAM_SIGFPE).
fileModificationChecking : Monitoring run-time modified files using timeStampMaster (fileModificationSkew 10)
allowSystemOperations : Allowing user-supplied system call operations

// * * * * * * * * * * * * * * * * * * * * * * * * * * * * * * * * * * * * * //
Create time

Create mesh for time = 0

Reading transportProperties

Reading field p

Reading field U

Reading/calculating face flux field phi


Starting time loop

Time = 0.002

Courant Number mean: 0 max: 0
nonePBiCGStab:  Solving for Ux, Initial residual = 1, Final residual = 0.0592055, No Iterations 5
nonePBiCGStab:  Solving for Uy, Initial residual = 0, Final residual = 0, No Iterations 0
nonePBiCGStab:  Solving for Uz, Initial residual = 0, Final residual = 0, No Iterations 0
Gingko init_host_sparsity_pattern : 35 ms
 matrix not stored update host matrix 
Gingko update_host_mtx : 18 ms
matrix is not yet sorted, compute sorting idxs 
 compute sorting idxs 860000
Gingko compute_sort : 991 ms
matrix is not yet sorted,  sorting host matrix 
Gingko sort_host_mtx_sparsity_pattern : 24 ms
Gingko sort_host_mtx : 16 ms
Gingko init_preconditioner : 0 ms
 get_precond == NULL
Gingko solve : 1045 ms
 copy back
 get iters 
noneompGKOBiCGStab:  Solving for p, Initial residual = 0, Final residual = 5.67034e-07, No Iterations 354
time step continuity errors : sum local = 1.67309e-07, global = -1.86554e-20, cumulative = -1.86554e-20
Gingko init_preconditioner : 0 ms
 get_precond == NULL
Gingko solve : 994 ms
 copy back
 get iters 
noneompGKOBiCGStab:  Solving for p, Initial residual = 1, Final residual = 9.69451e-07, No Iterations 337
time step continuity errors : sum local = 6.41816e-09, global = 3.60987e-21, cumulative = -1.50455e-20
ExecutionTime = 18.1 s  ClockTime = 4 s

Time = 0.004

Courant Number mean: 0.0636233 max: 0.723792
nonePBiCGStab:  Solving for Ux, Initial residual = 0.144132, Final residual = 0.0219193, No Iterations 5
nonePBiCGStab:  Solving for Uy, Initial residual = 0.36393, Final residual = 0.0523359, No Iterations 5
nonePBiCGStab:  Solving for Uz, Initial residual = 0.973485, Final residual = 0.159351, No Iterations 5
Gingko init_preconditioner : 0 ms
 get_precond == NULL
Gingko solve : 1048 ms
 copy back
 get iters 
noneompGKOBiCGStab:  Solving for p, Initial residual = 0.676715, Final residual = 9.61379e-07, No Iterations 356
time step continuity errors : sum local = 1.40345e-08, global = -6.30787e-21, cumulative = -2.13534e-20
Gingko init_preconditioner : 0 ms
 get_precond == NULL
Gingko solve : 994 ms
 copy back
 get iters 
noneompGKOBiCGStab:  Solving for p, Initial residual = 0.668511, Final residual = 3.31843e-07, No Iterations 337
time step continuity errors : sum local = 4.47916e-07, global = 1.61151e-20, cumulative = -5.2383e-21
ExecutionTime = 34.58 s  ClockTime = 6 s

Time = 0.006

Courant Number mean: 0.0972271 max: 0.862513
nonePBiCGStab:  Solving for Ux, Initial residual = 0.0524055, Final residual = 0.00685365, No Iterations 5
nonePBiCGStab:  Solving for Uy, Initial residual = 0.127118, Final residual = 0.02016, No Iterations 5
nonePBiCGStab:  Solving for Uz, Initial residual = 0.365817, Final residual = 0.0534327, No Iterations 5
Gingko init_preconditioner : 0 ms
 get_precond == NULL
Gingko solve : 1060 ms
 copy back
 get iters 
noneompGKOBiCGStab:  Solving for p, Initial residual = 0.58467, Final residual = 9.89316e-07, No Iterations 360
time step continuity errors : sum local = 4.71731e-08, global = 2.01302e-20, cumulative = 1.48919e-20
Gingko init_preconditioner : 0 ms
 get_precond == NULL
Gingko solve : 1056 ms
 copy back
 get iters 
noneompGKOBiCGStab:  Solving for p, Initial residual = 0.594637, Final residual = 6.22396e-07, No Iterations 360
time step continuity errors : sum local = 4.23325e-08, global = -2.51617e-20, cumulative = -1.02698e-20
ExecutionTime = 51.66 s  ClockTime = 8 s

Time = 0.008

Courant Number mean: 0.113793 max: 0.882478
nonePBiCGStab:  Solving for Ux, Initial residual = 0.0289526, Final residual = 0.00344553, No Iterations 5
nonePBiCGStab:  Solving for Uy, Initial residual = 0.0844425, Final residual = 0.0109599, No Iterations 5
nonePBiCGStab:  Solving for Uz, Initial residual = 0.229738, Final residual = 0.0312313, No Iterations 5
Gingko init_preconditioner : 0 ms
 get_precond == NULL
Gingko solve : 1044 ms
 copy back
 get iters 
noneompGKOBiCGStab:  Solving for p, Initial residual = 0.528787, Final residual = 6.39742e-07, No Iterations 359
time step continuity errors : sum local = 1.1818e-07, global = 2.9971e-21, cumulative = -7.27266e-21
Gingko init_preconditioner : 0 ms
 get_precond == NULL
Gingko solve : 1023 ms
 copy back
 get iters 
noneompGKOBiCGStab:  Solving for p, Initial residual = 0.411533, Final residual = 6.17864e-07, No Iterations 356
time step continuity errors : sum local = 1.83974e-08, global = -5.89766e-21, cumulative = -1.31703e-20
ExecutionTime = 68.36 s  ClockTime = 11 s

Time = 0.01

Courant Number mean: 0.127337 max: 0.898875
nonePBiCGStab:  Solving for Ux, Initial residual = 0.0202754, Final residual = 0.00208642, No Iterations 5
nonePBiCGStab:  Solving for Uy, Initial residual = 0.0505748, Final residual = 0.00627379, No Iterations 5
nonePBiCGStab:  Solving for Uz, Initial residual = 0.113343, Final residual = 0.0186257, No Iterations 5
Gingko init_preconditioner : 0 ms
 get_precond == NULL
Gingko solve : 959 ms
 copy back
 get iters 
noneompGKOBiCGStab:  Solving for p, Initial residual = 0.342802, Final residual = 9.78534e-07, No Iterations 333
time step continuity errors : sum local = 5.73091e-09, global = 3.04774e-21, cumulative = -1.01226e-20
Gingko init_preconditioner : 0 ms
 get_precond == NULL
Gingko solve : 900 ms
 copy back
 get iters 
noneompGKOBiCGStab:  Solving for p, Initial residual = 0.354166, Final residual = 7.65623e-07, No Iterations 312
time step continuity errors : sum local = 8.81067e-08, global = -2.61537e-21, cumulative = -1.2738e-20
ExecutionTime = 83.38 s  ClockTime = 12 s

End

