/*---------------------------------------------------------------------------*\
  =========                 |
  \\      /  F ield         | OpenFOAM: The Open Source CFD Toolbox
   \\    /   O peration     | Website:  https://openfoam.org
    \\  /    A nd           | Version:  8
     \\/     M anipulation  |
\*---------------------------------------------------------------------------*/
Build  : 8-13d66902f78c
Exec   : icoFoam
Date   : Jun 26 2021
Time   : 23:28:57
Host   : "uc2n442.localdomain"
PID    : 1058160
I/O    : uncollated
Case   : /pfs/data5/home/kit/scc/nq7776/code/OGL_DATA/lidDrivenCavity3D/v0.1-117-g6793da2/f584ccac99/IntelXeonGold6230CPU@2.10GHz/Test_2021-06-26-23:01:02/50/p-BiCGStab-GKO-none-omp/lidDrivenCavity3D
nProcs : 1
sigFpe : Enabling floating point exception trapping (FOAM_SIGFPE).
fileModificationChecking : Monitoring run-time modified files using timeStampMaster (fileModificationSkew 10)
allowSystemOperations : Allowing user-supplied system call operations

// * * * * * * * * * * * * * * * * * * * * * * * * * * * * * * * * * * * * * //
Create time

Create mesh for time = 0

Reading transportProperties

Reading field p

Reading field U

Reading/calculating face flux field phi


Starting time loop

Time = 0.002

Courant Number mean: 0 max: 0
nonePBiCGStab:  Solving for Ux, Initial residual = 1, Final residual = 0.0592055, No Iterations 5
nonePBiCGStab:  Solving for Uy, Initial residual = 0, Final residual = 0, No Iterations 0
nonePBiCGStab:  Solving for Uz, Initial residual = 0, Final residual = 0, No Iterations 0
Gingko init_host_sparsity_pattern : 35 ms
 matrix not stored update host matrix 
Gingko update_host_mtx : 18 ms
matrix is not yet sorted, compute sorting idxs 
 compute sorting idxs 860000
Gingko compute_sort : 991 ms
matrix is not yet sorted,  sorting host matrix 
Gingko sort_host_mtx_sparsity_pattern : 24 ms
Gingko sort_host_mtx : 15 ms
Gingko init_preconditioner : 0 ms
 get_precond == NULL
Gingko solve : 1834 ms
 copy back
 get iters 
noneompGKOBiCGStab:  Solving for p, Initial residual = 0, Final residual = 5.67034e-07, No Iterations 354
time step continuity errors : sum local = 5.27309e-08, global = -1.86554e-20, cumulative = -1.86554e-20
Gingko init_preconditioner : 0 ms
 get_precond == NULL
Gingko solve : 1821 ms
 copy back
 get iters 
noneompGKOBiCGStab:  Solving for p, Initial residual = 1, Final residual = 9.05482e-07, No Iterations 335
time step continuity errors : sum local = 1.58354e-07, global = 2.57295e-21, cumulative = -1.60825e-20
ExecutionTime = 9.07 s  ClockTime = 5 s

Time = 0.004

Courant Number mean: 0.0636234 max: 0.723792
nonePBiCGStab:  Solving for Ux, Initial residual = 0.144135, Final residual = 0.0219211, No Iterations 5
nonePBiCGStab:  Solving for Uy, Initial residual = 0.36393, Final residual = 0.0523019, No Iterations 5
nonePBiCGStab:  Solving for Uz, Initial residual = 0.973007, Final residual = 0.159132, No Iterations 5
Gingko init_preconditioner : 0 ms
 get_precond == NULL
Gingko solve : 1711 ms
 copy back
 get iters 
noneompGKOBiCGStab:  Solving for p, Initial residual = 0.676702, Final residual = 8.5077e-07, No Iterations 323
time step continuity errors : sum local = 3.16652e-09, global = -3.30318e-20, cumulative = -4.91143e-20
Gingko init_preconditioner : 0 ms
 get_precond == NULL
Gingko solve : 1844 ms
 copy back
 get iters 
noneompGKOBiCGStab:  Solving for p, Initial residual = 0.668501, Final residual = 7.93864e-07, No Iterations 348
time step continuity errors : sum local = 4.47003e-08, global = 1.69672e-20, cumulative = -3.21471e-20
ExecutionTime = 16.3 s  ClockTime = 9 s

Time = 0.006

Courant Number mean: 0.0972273 max: 0.862514
nonePBiCGStab:  Solving for Ux, Initial residual = 0.0524154, Final residual = 0.00685466, No Iterations 5
nonePBiCGStab:  Solving for Uy, Initial residual = 0.127066, Final residual = 0.0201292, No Iterations 5
nonePBiCGStab:  Solving for Uz, Initial residual = 0.366412, Final residual = 0.0531133, No Iterations 5
Gingko init_preconditioner : 0 ms
 get_precond == NULL
Gingko solve : 1849 ms
 copy back
 get iters 
noneompGKOBiCGStab:  Solving for p, Initial residual = 0.584647, Final residual = 9.88701e-07, No Iterations 351
time step continuity errors : sum local = 8.21968e-09, global = -1.50582e-20, cumulative = -4.72053e-20
Gingko init_preconditioner : 0 ms
 get_precond == NULL
Gingko solve : 1790 ms
 copy back
 get iters 
noneompGKOBiCGStab:  Solving for p, Initial residual = 0.59456, Final residual = 5.1411e-07, No Iterations 344
time step continuity errors : sum local = 6.02566e-07, global = -3.4056e-20, cumulative = -8.12613e-20
ExecutionTime = 23.71 s  ClockTime = 13 s

Time = 0.008

Courant Number mean: 0.113793 max: 0.88248
nonePBiCGStab:  Solving for Ux, Initial residual = 0.0289366, Final residual = 0.00344503, No Iterations 5
nonePBiCGStab:  Solving for Uy, Initial residual = 0.0845158, Final residual = 0.010969, No Iterations 5
nonePBiCGStab:  Solving for Uz, Initial residual = 0.233669, Final residual = 0.0326405, No Iterations 5
Gingko init_preconditioner : 0 ms
 get_precond == NULL
Gingko solve : 1777 ms
 copy back
 get iters 
noneompGKOBiCGStab:  Solving for p, Initial residual = 0.528727, Final residual = 8.60387e-07, No Iterations 342
time step continuity errors : sum local = 9.60605e-09, global = 6.66595e-21, cumulative = -7.45954e-20
Gingko init_preconditioner : 0 ms
 get_precond == NULL
Gingko solve : 1771 ms
 copy back
 get iters 
noneompGKOBiCGStab:  Solving for p, Initial residual = 0.411865, Final residual = 8.20431e-07, No Iterations 340
time step continuity errors : sum local = 6.09475e-09, global = -3.26138e-20, cumulative = -1.07209e-19
ExecutionTime = 30.93 s  ClockTime = 17 s

Time = 0.01

Courant Number mean: 0.127337 max: 0.898875
nonePBiCGStab:  Solving for Ux, Initial residual = 0.0202946, Final residual = 0.00209015, No Iterations 5
nonePBiCGStab:  Solving for Uy, Initial residual = 0.05059, Final residual = 0.00627561, No Iterations 5
nonePBiCGStab:  Solving for Uz, Initial residual = 0.116359, Final residual = 0.0187631, No Iterations 5
Gingko init_preconditioner : 0 ms
 get_precond == NULL
Gingko solve : 1872 ms
 copy back
 get iters 
noneompGKOBiCGStab:  Solving for p, Initial residual = 0.342902, Final residual = 7.40554e-07, No Iterations 358
time step continuity errors : sum local = 4.56332e-09, global = 2.60101e-20, cumulative = -8.1199e-20
Gingko init_preconditioner : 0 ms
 get_precond == NULL
Gingko solve : 1695 ms
 copy back
 get iters 
noneompGKOBiCGStab:  Solving for p, Initial residual = 0.354316, Final residual = 9.94359e-07, No Iterations 327
time step continuity errors : sum local = 2.89923e-09, global = 3.52818e-20, cumulative = -4.59173e-20
ExecutionTime = 38.19 s  ClockTime = 20 s

End

