/*---------------------------------------------------------------------------*\
  =========                 |
  \\      /  F ield         | OpenFOAM: The Open Source CFD Toolbox
   \\    /   O peration     | Website:  https://openfoam.org
    \\  /    A nd           | Version:  8
     \\/     M anipulation  |
\*---------------------------------------------------------------------------*/
Build  : 8-13d66902f78c
Exec   : icoFoam
Date   : Jun 27 2021
Time   : 00:08:38
Host   : "uc2n388.localdomain"
PID    : 3954039
I/O    : uncollated
Case   : /pfs/data5/home/kit/scc/nq7776/code/OGL_DATA/lidDrivenCavity3D/v0.1-117-g6793da2/f584ccac99/IntelXeonGold6230CPU@2.10GHz/Test_2021-06-26-23:29:56/50/p-U-BiCGStab-GKO-BJ-omp/lidDrivenCavity3D
nProcs : 1
sigFpe : Enabling floating point exception trapping (FOAM_SIGFPE).
fileModificationChecking : Monitoring run-time modified files using timeStampMaster (fileModificationSkew 10)
allowSystemOperations : Allowing user-supplied system call operations

// * * * * * * * * * * * * * * * * * * * * * * * * * * * * * * * * * * * * * //
Create time

Create mesh for time = 0

Reading transportProperties

Reading field p

Reading field U

Reading/calculating face flux field phi


Starting time loop

Time = 0.002

Courant Number mean: 0 max: 0
Gingko init_host_sparsity_pattern : 35 ms
 matrix not stored update host matrix 
Gingko update_host_mtx : 18 ms
matrix is not yet sorted, compute sorting idxs 
 compute sorting idxs 860000
Gingko compute_sort : 992 ms
matrix is not yet sorted,  sorting host matrix 
Gingko sort_host_mtx_sparsity_pattern : 24 ms
Gingko sort_host_mtx : 16 ms
Gingko init_preconditioner : 16 ms
Gingko solve : 166 ms
 copy back
 get iters 
BJompGKOBiCGStab:  Solving for Ux, Initial residual = 0, Final residual = 8.40984e-07, No Iterations 31
Gingko init_host_sparsity_pattern : 35 ms
 matrix not stored update host matrix 
Gingko update_host_mtx : 18 ms
matrix is not yet sorted,  sorting host matrix 
Gingko sort_host_mtx_sparsity_pattern : 23 ms
Gingko sort_host_mtx : 12 ms
Gingko init_preconditioner : 2 ms
Gingko solve : 2 ms
 copy back
 get iters 
BJompGKOBiCGStab:  Solving for Uy, Initial residual = 1, Final residual = 0, No Iterations 0
Gingko init_host_sparsity_pattern : 33 ms
 matrix not stored update host matrix 
Gingko update_host_mtx : 15 ms
matrix is not yet sorted,  sorting host matrix 
Gingko sort_host_mtx_sparsity_pattern : 23 ms
Gingko sort_host_mtx : 12 ms
Gingko init_preconditioner : 2 ms
Gingko solve : 2 ms
 copy back
 get iters 
BJompGKOBiCGStab:  Solving for Uz, Initial residual = 0, Final residual = 0, No Iterations 0
Gingko init_host_sparsity_pattern : 32 ms
 matrix not stored update host matrix 
Gingko update_host_mtx : 18 ms
matrix is not yet sorted,  sorting host matrix 
Gingko sort_host_mtx_sparsity_pattern : 22 ms
Gingko sort_host_mtx : 14 ms
Gingko init_preconditioner : 2 ms
Gingko solve : 1193 ms
 copy back
 get iters 
BJompGKOBiCGStab:  Solving for p, Initial residual = 0, Final residual = 6.73961e-07, No Iterations 294
time step continuity errors : sum local = 1.11293e-07, global = 6.65012e-21, cumulative = 6.65012e-21
 found preconditioner 
Gingko init_preconditioner : 0 ms
Gingko solve : 1160 ms
 copy back
 get iters 
BJompGKOBiCGStab:  Solving for p, Initial residual = 1, Final residual = 7.62497e-07, No Iterations 277
time step continuity errors : sum local = 3.29231e-08, global = 1.71154e-20, cumulative = 2.37655e-20
ExecutionTime = 166.25 s  ClockTime = 4 s

Time = 0.004

Courant Number mean: 0.0720722 max: 0.726639
Gingko init_host_sparsity_pattern : 32 ms
 matrix not stored update host matrix 
Gingko update_host_mtx : 15 ms
matrix is not yet sorted,  sorting host matrix 
Gingko sort_host_mtx_sparsity_pattern : 25 ms
Gingko sort_host_mtx : 13 ms
 found preconditioner 
Gingko init_preconditioner : 0 ms
Gingko solve : 110 ms
 copy back
 get iters 
BJompGKOBiCGStab:  Solving for Ux, Initial residual = 0.721585, Final residual = 5.54562e-07, No Iterations 23
Gingko init_host_sparsity_pattern : 34 ms
 matrix not stored update host matrix 
Gingko update_host_mtx : 15 ms
matrix is not yet sorted,  sorting host matrix 
Gingko sort_host_mtx_sparsity_pattern : 22 ms
Gingko sort_host_mtx : 12 ms
 found preconditioner 
Gingko init_preconditioner : 0 ms
Gingko solve : 144 ms
 copy back
 get iters 
BJompGKOBiCGStab:  Solving for Uy, Initial residual = 0.203461, Final residual = 9.29619e-07, No Iterations 32
Gingko init_host_sparsity_pattern : 34 ms
 matrix not stored update host matrix 
Gingko update_host_mtx : 16 ms
matrix is not yet sorted,  sorting host matrix 
Gingko sort_host_mtx_sparsity_pattern : 22 ms
Gingko sort_host_mtx : 12 ms
 found preconditioner 
Gingko init_preconditioner : 0 ms
Gingko solve : 143 ms
 copy back
 get iters 
BJompGKOBiCGStab:  Solving for Uz, Initial residual = 0.618434, Final residual = 9.47209e-07, No Iterations 32
 found preconditioner 
Gingko init_preconditioner : 0 ms
Gingko solve : 1157 ms
 copy back
 get iters 
BJompGKOBiCGStab:  Solving for p, Initial residual = 0.536148, Final residual = 6.0493e-07, No Iterations 276
time step continuity errors : sum local = 1.03626e-07, global = 2.2515e-21, cumulative = 2.6017e-20
 found preconditioner 
Gingko init_preconditioner : 0 ms
Gingko solve : 1057 ms
 copy back
 get iters 
BJompGKOBiCGStab:  Solving for p, Initial residual = 0.673319, Final residual = 9.31973e-07, No Iterations 256
time step continuity errors : sum local = 1.536e-08, global = 4.14612e-20, cumulative = 6.74783e-20
ExecutionTime = 335.62 s  ClockTime = 7 s

Time = 0.006

Courant Number mean: 0.107408 max: 0.881754
Gingko init_host_sparsity_pattern : 32 ms
 matrix not stored update host matrix 
Gingko update_host_mtx : 16 ms
matrix is not yet sorted,  sorting host matrix 
Gingko sort_host_mtx_sparsity_pattern : 24 ms
Gingko sort_host_mtx : 13 ms
 found preconditioner 
Gingko init_preconditioner : 0 ms
Gingko solve : 95 ms
 copy back
 get iters 
BJompGKOBiCGStab:  Solving for Ux, Initial residual = 0.598895, Final residual = 9.9981e-07, No Iterations 21
Gingko init_host_sparsity_pattern : 34 ms
 matrix not stored update host matrix 
Gingko update_host_mtx : 16 ms
matrix is not yet sorted,  sorting host matrix 
Gingko sort_host_mtx_sparsity_pattern : 22 ms
Gingko sort_host_mtx : 12 ms
 found preconditioner 
Gingko init_preconditioner : 0 ms
Gingko solve : 129 ms
 copy back
 get iters 
BJompGKOBiCGStab:  Solving for Uy, Initial residual = 0.0995566, Final residual = 8.21091e-07, No Iterations 29
Gingko init_host_sparsity_pattern : 34 ms
 matrix not stored update host matrix 
Gingko update_host_mtx : 15 ms
matrix is not yet sorted,  sorting host matrix 
Gingko sort_host_mtx_sparsity_pattern : 22 ms
Gingko sort_host_mtx : 12 ms
 found preconditioner 
Gingko init_preconditioner : 0 ms
Gingko solve : 142 ms
 copy back
 get iters 
BJompGKOBiCGStab:  Solving for Uz, Initial residual = 0.250004, Final residual = 8.83604e-07, No Iterations 32
 found preconditioner 
Gingko init_preconditioner : 0 ms
Gingko solve : 1097 ms
 copy back
 get iters 
BJompGKOBiCGStab:  Solving for p, Initial residual = 0.541004, Final residual = 9.56468e-07, No Iterations 265
time step continuity errors : sum local = 8.62524e-09, global = 2.53929e-20, cumulative = 9.28712e-20
 found preconditioner 
Gingko init_preconditioner : 0 ms
Gingko solve : 1092 ms
 copy back
 get iters 
BJompGKOBiCGStab:  Solving for p, Initial residual = 0.606887, Final residual = 9.44163e-07, No Iterations 265
time step continuity errors : sum local = 1.23092e-08, global = -5.85053e-20, cumulative = 3.43659e-20
ExecutionTime = 501.44 s  ClockTime = 10 s

Time = 0.008

Courant Number mean: 0.123244 max: 0.890103
Gingko init_host_sparsity_pattern : 32 ms
 matrix not stored update host matrix 
Gingko update_host_mtx : 16 ms
matrix is not yet sorted,  sorting host matrix 
Gingko sort_host_mtx_sparsity_pattern : 22 ms
Gingko sort_host_mtx : 12 ms
 found preconditioner 
Gingko init_preconditioner : 0 ms
Gingko solve : 109 ms
 copy back
 get iters 
BJompGKOBiCGStab:  Solving for Ux, Initial residual = 0.560882, Final residual = 7.87416e-07, No Iterations 25
Gingko init_host_sparsity_pattern : 34 ms
 matrix not stored update host matrix 
Gingko update_host_mtx : 16 ms
matrix is not yet sorted,  sorting host matrix 
Gingko sort_host_mtx_sparsity_pattern : 22 ms
Gingko sort_host_mtx : 12 ms
 found preconditioner 
Gingko init_preconditioner : 0 ms
Gingko solve : 143 ms
 copy back
 get iters 
BJompGKOBiCGStab:  Solving for Uy, Initial residual = 0.0341386, Final residual = 8.13905e-07, No Iterations 28
Gingko init_host_sparsity_pattern : 34 ms
 matrix not stored update host matrix 
Gingko update_host_mtx : 20 ms
matrix is not yet sorted,  sorting host matrix 
Gingko sort_host_mtx_sparsity_pattern : 22 ms
Gingko sort_host_mtx : 12 ms
 found preconditioner 
Gingko init_preconditioner : 0 ms
Gingko solve : 135 ms
 copy back
 get iters 
BJompGKOBiCGStab:  Solving for Uz, Initial residual = 0.132381, Final residual = 9.26433e-07, No Iterations 31
 found preconditioner 
Gingko init_preconditioner : 0 ms
Gingko solve : 1177 ms
 copy back
 get iters 
BJompGKOBiCGStab:  Solving for p, Initial residual = 0.472002, Final residual = 6.01283e-07, No Iterations 281
time step continuity errors : sum local = 3.11589e-09, global = 2.94838e-22, cumulative = 3.46608e-20
 found preconditioner 
Gingko init_preconditioner : 0 ms
Gingko solve : 1111 ms
 copy back
 get iters 
BJompGKOBiCGStab:  Solving for p, Initial residual = 0.423032, Final residual = 5.93942e-07, No Iterations 270
time step continuity errors : sum local = 1.05392e-08, global = -1.00659e-20, cumulative = 2.45949e-20
ExecutionTime = 674.93 s  ClockTime = 13 s

Time = 0.01

Courant Number mean: 0.136096 max: 0.906942
Gingko init_host_sparsity_pattern : 33 ms
 matrix not stored update host matrix 
Gingko update_host_mtx : 16 ms
matrix is not yet sorted,  sorting host matrix 
Gingko sort_host_mtx_sparsity_pattern : 23 ms
Gingko sort_host_mtx : 12 ms
 found preconditioner 
Gingko init_preconditioner : 0 ms
Gingko solve : 107 ms
 copy back
 get iters 
BJompGKOBiCGStab:  Solving for Ux, Initial residual = 0.368367, Final residual = 7.31344e-07, No Iterations 24
Gingko init_host_sparsity_pattern : 34 ms
 matrix not stored update host matrix 
Gingko update_host_mtx : 15 ms
matrix is not yet sorted,  sorting host matrix 
Gingko sort_host_mtx_sparsity_pattern : 22 ms
Gingko sort_host_mtx : 12 ms
 found preconditioner 
Gingko init_preconditioner : 0 ms
Gingko solve : 109 ms
 copy back
 get iters 
BJompGKOBiCGStab:  Solving for Uy, Initial residual = 0.0230744, Final residual = 9.76494e-07, No Iterations 25
Gingko init_host_sparsity_pattern : 34 ms
 matrix not stored update host matrix 
Gingko update_host_mtx : 16 ms
matrix is not yet sorted,  sorting host matrix 
Gingko sort_host_mtx_sparsity_pattern : 22 ms
Gingko sort_host_mtx : 12 ms
 found preconditioner 
Gingko init_preconditioner : 0 ms
Gingko solve : 121 ms
 copy back
 get iters 
BJompGKOBiCGStab:  Solving for Uz, Initial residual = 0.0484059, Final residual = 8.62145e-07, No Iterations 28
 found preconditioner 
Gingko init_preconditioner : 0 ms
Gingko solve : 1038 ms
 copy back
 get iters 
BJompGKOBiCGStab:  Solving for p, Initial residual = 0.159188, Final residual = 8.88637e-07, No Iterations 246
time step continuity errors : sum local = 4.01696e-09, global = -2.28884e-20, cumulative = 1.70653e-21
 found preconditioner 
Gingko init_preconditioner : 0 ms
Gingko solve : 992 ms
 copy back
 get iters 
BJompGKOBiCGStab:  Solving for p, Initial residual = 0.361668, Final residual = 9.64937e-07, No Iterations 242
time step continuity errors : sum local = 1.33774e-09, global = 4.49552e-21, cumulative = 6.20206e-21
ExecutionTime = 828.83 s  ClockTime = 16 s

End

