/*---------------------------------------------------------------------------*\
  =========                 |
  \\      /  F ield         | OpenFOAM: The Open Source CFD Toolbox
   \\    /   O peration     | Website:  https://openfoam.org
    \\  /    A nd           | Version:  8
     \\/     M anipulation  |
\*---------------------------------------------------------------------------*/
Build  : 8-13d66902f78c
Exec   : icoFoam
Date   : Jun 27 2021
Time   : 22:51:06
Host   : "uc2n528.localdomain"
PID    : 182734
I/O    : uncollated
Case   : /pfs/data5/home/kit/scc/nq7776/code/OGL_DATA/lidDrivenCavity3D/v0.1-118-gbd9d99d/f584ccac99/IntelXeonGold6230CPU@2.10GHz/Test_2021-06-27-22:26:13/50/p-BiCGStab-GKO-none-omp/lidDrivenCavity3D
nProcs : 1
sigFpe : Enabling floating point exception trapping (FOAM_SIGFPE).
fileModificationChecking : Monitoring run-time modified files using timeStampMaster (fileModificationSkew 10)
allowSystemOperations : Allowing user-supplied system call operations

// * * * * * * * * * * * * * * * * * * * * * * * * * * * * * * * * * * * * * //
Create time

Create mesh for time = 0

Reading transportProperties

Reading field p

Reading field U

Reading/calculating face flux field phi


Starting time loop

Time = 0.002

Courant Number mean: 0 max: 0
nonePBiCGStab:  Solving for Ux, Initial residual = 1, Final residual = 0.0592055, No Iterations 5
nonePBiCGStab:  Solving for Uy, Initial residual = 0, Final residual = 0, No Iterations 0
nonePBiCGStab:  Solving for Uz, Initial residual = 0, Final residual = 0, No Iterations 0
Gingko init_host_sparsity_pattern : 35 ms
 matrix not stored update host matrix 
Gingko update_host_mtx : 18 ms
matrix is not yet sorted, compute sorting idxs 
 compute sorting idxs 860000
Gingko compute_sort : 995 ms
matrix is not yet sorted,  sorting host matrix 
Gingko sort_host_mtx_sparsity_pattern : 24 ms
Gingko sort_host_mtx : 16 ms
Gingko init_preconditioner : 0 ms
 get_precond == NULL
Gingko solve : 1712 ms
 copy back
 get iters 
noneompGKOBiCGStab:  Solving for p, Initial residual = 0, Final residual = 5.67034e-07, No Iterations 354
time step continuity errors : sum local = 5.27309e-08, global = -1.86554e-20, cumulative = -1.86554e-20
Gingko init_preconditioner : 0 ms
 get_precond == NULL
Gingko solve : 1559 ms
 copy back
 get iters 
noneompGKOBiCGStab:  Solving for p, Initial residual = 1, Final residual = 9.05482e-07, No Iterations 335
time step continuity errors : sum local = 1.32592e-07, global = 2.59942e-21, cumulative = -1.6056e-20
ExecutionTime = 8.29 s  ClockTime = 5 s

Time = 0.004

Courant Number mean: 0.0636234 max: 0.723792
nonePBiCGStab:  Solving for Ux, Initial residual = 0.144136, Final residual = 0.0219212, No Iterations 5
nonePBiCGStab:  Solving for Uy, Initial residual = 0.36393, Final residual = 0.0523077, No Iterations 5
nonePBiCGStab:  Solving for Uz, Initial residual = 0.973119, Final residual = 0.159194, No Iterations 5
Gingko init_preconditioner : 0 ms
 get_precond == NULL
Gingko solve : 1640 ms
 copy back
 get iters 
noneompGKOBiCGStab:  Solving for p, Initial residual = 0.676702, Final residual = 1.71129e-07, No Iterations 350
time step continuity errors : sum local = 4.81531e-08, global = 2.28717e-20, cumulative = 6.81571e-21
Gingko init_preconditioner : 0 ms
 get_precond == NULL
Gingko solve : 1652 ms
 copy back
 get iters 
noneompGKOBiCGStab:  Solving for p, Initial residual = 0.668497, Final residual = 9.48855e-07, No Iterations 349
time step continuity errors : sum local = 8.68341e-09, global = 4.11447e-20, cumulative = 4.79604e-20
ExecutionTime = 15 s  ClockTime = 8 s

Time = 0.006

Courant Number mean: 0.0972272 max: 0.862514
nonePBiCGStab:  Solving for Ux, Initial residual = 0.0524138, Final residual = 0.00685424, No Iterations 5
nonePBiCGStab:  Solving for Uy, Initial residual = 0.127072, Final residual = 0.0201319, No Iterations 5
nonePBiCGStab:  Solving for Uz, Initial residual = 0.36636, Final residual = 0.0531297, No Iterations 5
Gingko init_preconditioner : 0 ms
 get_precond == NULL
Gingko solve : 1650 ms
 copy back
 get iters 
noneompGKOBiCGStab:  Solving for p, Initial residual = 0.584658, Final residual = 9.31978e-07, No Iterations 350
time step continuity errors : sum local = 7.0606e-09, global = -4.4801e-21, cumulative = 4.34803e-20
Gingko init_preconditioner : 0 ms
 get_precond == NULL
Gingko solve : 1614 ms
 copy back
 get iters 
noneompGKOBiCGStab:  Solving for p, Initial residual = 0.594554, Final residual = 7.90363e-07, No Iterations 343
time step continuity errors : sum local = 6.4481e-08, global = 5.59295e-21, cumulative = 4.90732e-20
ExecutionTime = 21.66 s  ClockTime = 12 s

Time = 0.008

Courant Number mean: 0.113793 max: 0.88248
nonePBiCGStab:  Solving for Ux, Initial residual = 0.0289514, Final residual = 0.00344419, No Iterations 5
nonePBiCGStab:  Solving for Uy, Initial residual = 0.0844389, Final residual = 0.0109226, No Iterations 5
nonePBiCGStab:  Solving for Uz, Initial residual = 0.229688, Final residual = 0.0300995, No Iterations 5
Gingko init_preconditioner : 0 ms
 get_precond == NULL
Gingko solve : 1645 ms
 copy back
 get iters 
noneompGKOBiCGStab:  Solving for p, Initial residual = 0.528727, Final residual = 8.91546e-07, No Iterations 354
time step continuity errors : sum local = 7.7402e-09, global = 8.61288e-21, cumulative = 5.76861e-20
Gingko init_preconditioner : 0 ms
 get_precond == NULL
Gingko solve : 1662 ms
 copy back
 get iters 
noneompGKOBiCGStab:  Solving for p, Initial residual = 0.41148, Final residual = 9.50053e-07, No Iterations 352
time step continuity errors : sum local = 2.37652e-08, global = 2.06395e-20, cumulative = 7.83257e-20
ExecutionTime = 28.4 s  ClockTime = 15 s

Time = 0.01

Courant Number mean: 0.127339 max: 0.898877
nonePBiCGStab:  Solving for Ux, Initial residual = 0.0202768, Final residual = 0.00208523, No Iterations 5
nonePBiCGStab:  Solving for Uy, Initial residual = 0.0505584, Final residual = 0.0062393, No Iterations 5
nonePBiCGStab:  Solving for Uz, Initial residual = 0.113221, Final residual = 0.0181602, No Iterations 5
Gingko init_preconditioner : 0 ms
 get_precond == NULL
Gingko solve : 1535 ms
 copy back
 get iters 
noneompGKOBiCGStab:  Solving for p, Initial residual = 0.3427, Final residual = 8.51965e-07, No Iterations 326
time step continuity errors : sum local = 5.80115e-08, global = 1.3657e-20, cumulative = 9.19826e-20
Gingko init_preconditioner : 0 ms
 get_precond == NULL
Gingko solve : 1593 ms
 copy back
 get iters 
noneompGKOBiCGStab:  Solving for p, Initial residual = 0.35406, Final residual = 8.18082e-07, No Iterations 337
time step continuity errors : sum local = 7.23597e-09, global = 6.74795e-21, cumulative = 9.87306e-20
ExecutionTime = 34.78 s  ClockTime = 18 s

End

