/*---------------------------------------------------------------------------*\
  =========                 |
  \\      /  F ield         | OpenFOAM: The Open Source CFD Toolbox
   \\    /   O peration     | Website:  https://openfoam.org
    \\  /    A nd           | Version:  8
     \\/     M anipulation  |
\*---------------------------------------------------------------------------*/
Build  : 8-13d66902f78c
Exec   : icoFoam
Date   : Jun 24 2021
Time   : 16:36:45
Host   : "uc2n448.localdomain"
PID    : 2423894
I/O    : uncollated
Case   : /pfs/data5/home/kit/scc/nq7776/code/OGL_DATA/lidDrivenCavity3D/v0.1-113-g8300f3e/f584ccac99/IntelXeonGold6230CPU@2.10GHz/Test_2021-06-24-16:08:25/50/p-U-BiCGStab-GKO-none-omp/lidDrivenCavity3D
nProcs : 1
sigFpe : Enabling floating point exception trapping (FOAM_SIGFPE).
fileModificationChecking : Monitoring run-time modified files using timeStampMaster (fileModificationSkew 10)
allowSystemOperations : Allowing user-supplied system call operations

// * * * * * * * * * * * * * * * * * * * * * * * * * * * * * * * * * * * * * //
Create time

Create mesh for time = 0

Reading transportProperties

Reading field p

Reading field U

Reading/calculating face flux field phi


Starting time loop

Time = 0.002

Courant Number mean: 0 max: 0
Gingko init_host_sparsity_pattern : 35 ms
 matrix not stored update host matrix 
Gingko update_host_mtx : 18 ms
matrix is not yet sorted, compute sorting idxs 
 compute sorting idxs 860000
Gingko compute_sort : 993 ms
matrix is not yet sorted,  sorting host matrix 
Gingko sort_host_mtx_sparsity_pattern : 23 ms
Gingko sort_host_mtx : 15 ms
Gingko init_preconditioner : 0 ms
 get_precond == NULL
Gingko solve : 141 ms
 copy back
 get iters 
noneompGKOBiCGStab:  Solving for Ux, Initial residual = 0, Final residual = 8.72813e-07, No Iterations 41
Gingko init_host_sparsity_pattern : 35 ms
 matrix not stored update host matrix 
Gingko update_host_mtx : 18 ms
matrix is not yet sorted,  sorting host matrix 
Gingko sort_host_mtx_sparsity_pattern : 23 ms
Gingko sort_host_mtx : 12 ms
Gingko init_preconditioner : 0 ms
 get_precond == NULL
Gingko solve : 3 ms
 copy back
 get iters 
noneompGKOBiCGStab:  Solving for Uy, Initial residual = 1, Final residual = 0, No Iterations 0
Gingko init_host_sparsity_pattern : 34 ms
 matrix not stored update host matrix 
Gingko update_host_mtx : 15 ms
matrix is not yet sorted,  sorting host matrix 
Gingko sort_host_mtx_sparsity_pattern : 23 ms
Gingko sort_host_mtx : 12 ms
Gingko init_preconditioner : 0 ms
 get_precond == NULL
Gingko solve : 6 ms
 copy back
 get iters 
noneompGKOBiCGStab:  Solving for Uz, Initial residual = 0, Final residual = 0, No Iterations 0
Gingko init_host_sparsity_pattern : 32 ms
 matrix not stored update host matrix 
Gingko update_host_mtx : 18 ms
matrix is not yet sorted,  sorting host matrix 
Gingko sort_host_mtx_sparsity_pattern : 22 ms
Gingko sort_host_mtx : 14 ms
Gingko init_preconditioner : 0 ms
 get_precond == NULL
Gingko solve : 1021 ms
 copy back
 get iters 
noneompGKOBiCGStab:  Solving for p, Initial residual = 0, Final residual = 9.02758e-07, No Iterations 342
time step continuity errors : sum local = 8.76799e-07, global = -6.99919e-21, cumulative = -6.99919e-21
Gingko init_preconditioner : 0 ms
 get_precond == NULL
Gingko solve : 1035 ms
 copy back
 get iters 
noneompGKOBiCGStab:  Solving for p, Initial residual = 1, Final residual = 9.36458e-07, No Iterations 348
time step continuity errors : sum local = 9.91697e-09, global = 6.48369e-21, cumulative = -5.15501e-22
ExecutionTime = 73.79 s  ClockTime = 4 s

Time = 0.004

Courant Number mean: 0.0720722 max: 0.726639
Gingko init_host_sparsity_pattern : 32 ms
 matrix not stored update host matrix 
Gingko update_host_mtx : 16 ms
matrix is not yet sorted,  sorting host matrix 
Gingko sort_host_mtx_sparsity_pattern : 24 ms
Gingko sort_host_mtx : 12 ms
Gingko init_preconditioner : 0 ms
 get_precond == NULL
Gingko solve : 114 ms
 copy back
 get iters 
noneompGKOBiCGStab:  Solving for Ux, Initial residual = 0.721723, Final residual = 9.48355e-07, No Iterations 38
Gingko init_host_sparsity_pattern : 33 ms
 matrix not stored update host matrix 
Gingko update_host_mtx : 15 ms
matrix is not yet sorted,  sorting host matrix 
Gingko sort_host_mtx_sparsity_pattern : 21 ms
Gingko sort_host_mtx : 12 ms
Gingko init_preconditioner : 0 ms
 get_precond == NULL
Gingko solve : 127 ms
 copy back
 get iters 
noneompGKOBiCGStab:  Solving for Uy, Initial residual = 0.203512, Final residual = 8.7401e-07, No Iterations 40
Gingko init_host_sparsity_pattern : 33 ms
 matrix not stored update host matrix 
Gingko update_host_mtx : 15 ms
matrix is not yet sorted,  sorting host matrix 
Gingko sort_host_mtx_sparsity_pattern : 21 ms
Gingko sort_host_mtx : 12 ms
Gingko init_preconditioner : 0 ms
 get_precond == NULL
Gingko solve : 124 ms
 copy back
 get iters 
noneompGKOBiCGStab:  Solving for Uz, Initial residual = 0.618386, Final residual = 7.15323e-07, No Iterations 40
Gingko init_preconditioner : 0 ms
 get_precond == NULL
Gingko solve : 966 ms
 copy back
 get iters 
noneompGKOBiCGStab:  Solving for p, Initial residual = 0.538297, Final residual = 8.33086e-07, No Iterations 332
time step continuity errors : sum local = 1.49981e-07, global = 1.80647e-20, cumulative = 1.75492e-20
Gingko init_preconditioner : 0 ms
 get_precond == NULL
Gingko solve : 951 ms
 copy back
 get iters 
noneompGKOBiCGStab:  Solving for p, Initial residual = 0.673391, Final residual = 9.44508e-07, No Iterations 328
time step continuity errors : sum local = 4.59964e-09, global = 5.31637e-20, cumulative = 7.07129e-20
ExecutionTime = 148.12 s  ClockTime = 7 s

Time = 0.006

Courant Number mean: 0.107411 max: 0.881768
Gingko init_host_sparsity_pattern : 32 ms
 matrix not stored update host matrix 
Gingko update_host_mtx : 17 ms
matrix is not yet sorted,  sorting host matrix 
Gingko sort_host_mtx_sparsity_pattern : 23 ms
Gingko sort_host_mtx : 13 ms
Gingko init_preconditioner : 0 ms
 get_precond == NULL
Gingko solve : 111 ms
 copy back
 get iters 
noneompGKOBiCGStab:  Solving for Ux, Initial residual = 0.598871, Final residual = 9.99252e-07, No Iterations 35
Gingko init_host_sparsity_pattern : 33 ms
 matrix not stored update host matrix 
Gingko update_host_mtx : 15 ms
matrix is not yet sorted,  sorting host matrix 
Gingko sort_host_mtx_sparsity_pattern : 22 ms
Gingko sort_host_mtx : 12 ms
Gingko init_preconditioner : 0 ms
 get_precond == NULL
Gingko solve : 106 ms
 copy back
 get iters 
noneompGKOBiCGStab:  Solving for Uy, Initial residual = 0.0996541, Final residual = 8.18723e-07, No Iterations 36
Gingko init_host_sparsity_pattern : 33 ms
 matrix not stored update host matrix 
Gingko update_host_mtx : 15 ms
matrix is not yet sorted,  sorting host matrix 
Gingko sort_host_mtx_sparsity_pattern : 22 ms
Gingko sort_host_mtx : 12 ms
Gingko init_preconditioner : 0 ms
 get_precond == NULL
Gingko solve : 120 ms
 copy back
 get iters 
noneompGKOBiCGStab:  Solving for Uz, Initial residual = 0.249786, Final residual = 8.37709e-07, No Iterations 40
Gingko init_preconditioner : 0 ms
 get_precond == NULL
Gingko solve : 1008 ms
 copy back
 get iters 
noneompGKOBiCGStab:  Solving for p, Initial residual = 0.547976, Final residual = 9.84522e-07, No Iterations 351
time step continuity errors : sum local = 6.47391e-08, global = 5.45815e-21, cumulative = 7.6171e-20
Gingko init_preconditioner : 0 ms
 get_precond == NULL
Gingko solve : 1035 ms
 copy back
 get iters 
noneompGKOBiCGStab:  Solving for p, Initial residual = 0.606957, Final residual = 5.37634e-07, No Iterations 351
time step continuity errors : sum local = 4.18368e-07, global = 9.81984e-21, cumulative = 8.59909e-20
ExecutionTime = 225.6 s  ClockTime = 9 s

Time = 0.008

Courant Number mean: 0.123244 max: 0.890103
Gingko init_host_sparsity_pattern : 32 ms
 matrix not stored update host matrix 
Gingko update_host_mtx : 17 ms
matrix is not yet sorted,  sorting host matrix 
Gingko sort_host_mtx_sparsity_pattern : 25 ms
Gingko sort_host_mtx : 12 ms
Gingko init_preconditioner : 0 ms
 get_precond == NULL
Gingko solve : 96 ms
 copy back
 get iters 
noneompGKOBiCGStab:  Solving for Ux, Initial residual = 0.560804, Final residual = 8.65915e-07, No Iterations 31
Gingko init_host_sparsity_pattern : 34 ms
 matrix not stored update host matrix 
Gingko update_host_mtx : 15 ms
matrix is not yet sorted,  sorting host matrix 
Gingko sort_host_mtx_sparsity_pattern : 21 ms
Gingko sort_host_mtx : 12 ms
Gingko init_preconditioner : 0 ms
 get_precond == NULL
Gingko solve : 104 ms
 copy back
 get iters 
noneompGKOBiCGStab:  Solving for Uy, Initial residual = 0.0341625, Final residual = 9.26214e-07, No Iterations 35
Gingko init_host_sparsity_pattern : 33 ms
 matrix not stored update host matrix 
Gingko update_host_mtx : 15 ms
matrix is not yet sorted,  sorting host matrix 
Gingko sort_host_mtx_sparsity_pattern : 21 ms
Gingko sort_host_mtx : 12 ms
Gingko init_preconditioner : 0 ms
 get_precond == NULL
Gingko solve : 115 ms
 copy back
 get iters 
noneompGKOBiCGStab:  Solving for Uz, Initial residual = 0.132384, Final residual = 8.47073e-07, No Iterations 39
Gingko init_preconditioner : 0 ms
 get_precond == NULL
Gingko solve : 969 ms
 copy back
 get iters 
noneompGKOBiCGStab:  Solving for p, Initial residual = 0.475466, Final residual = 5.67212e-07, No Iterations 333
time step continuity errors : sum local = 1.76676e-06, global = 1.61255e-20, cumulative = 1.02116e-19
Gingko init_preconditioner : 0 ms
 get_precond == NULL
Gingko solve : 1027 ms
 copy back
 get iters 
noneompGKOBiCGStab:  Solving for p, Initial residual = 0.423191, Final residual = 9.57332e-07, No Iterations 360
time step continuity errors : sum local = 8.27109e-08, global = 1.1422e-20, cumulative = 1.13538e-19
ExecutionTime = 300.84 s  ClockTime = 12 s

Time = 0.01

Courant Number mean: 0.136096 max: 0.906944
Gingko init_host_sparsity_pattern : 32 ms
 matrix not stored update host matrix 
Gingko update_host_mtx : 16 ms
matrix is not yet sorted,  sorting host matrix 
Gingko sort_host_mtx_sparsity_pattern : 22 ms
Gingko sort_host_mtx : 13 ms
Gingko init_preconditioner : 0 ms
 get_precond == NULL
Gingko solve : 87 ms
 copy back
 get iters 
noneompGKOBiCGStab:  Solving for Ux, Initial residual = 0.368912, Final residual = 8.7396e-07, No Iterations 29
Gingko init_host_sparsity_pattern : 34 ms
 matrix not stored update host matrix 
Gingko update_host_mtx : 16 ms
matrix is not yet sorted,  sorting host matrix 
Gingko sort_host_mtx_sparsity_pattern : 21 ms
Gingko sort_host_mtx : 13 ms
Gingko init_preconditioner : 0 ms
 get_precond == NULL
Gingko solve : 92 ms
 copy back
 get iters 
noneompGKOBiCGStab:  Solving for Uy, Initial residual = 0.0230666, Final residual = 9.49966e-07, No Iterations 31
Gingko init_host_sparsity_pattern : 34 ms
 matrix not stored update host matrix 
Gingko update_host_mtx : 16 ms
matrix is not yet sorted,  sorting host matrix 
Gingko sort_host_mtx_sparsity_pattern : 21 ms
Gingko sort_host_mtx : 13 ms
Gingko init_preconditioner : 0 ms
 get_precond == NULL
Gingko solve : 102 ms
 copy back
 get iters 
noneompGKOBiCGStab:  Solving for Uz, Initial residual = 0.0484974, Final residual = 9.49654e-07, No Iterations 35
Gingko init_preconditioner : 0 ms
 get_precond == NULL
Gingko solve : 936 ms
 copy back
 get iters 
noneompGKOBiCGStab:  Solving for p, Initial residual = 0.160912, Final residual = 9.02754e-07, No Iterations 331
time step continuity errors : sum local = 6.63142e-09, global = -3.91165e-20, cumulative = 7.44219e-20
Gingko init_preconditioner : 0 ms
 get_precond == NULL
Gingko solve : 978 ms
 copy back
 get iters 
noneompGKOBiCGStab:  Solving for p, Initial residual = 0.361744, Final residual = 9.19243e-07, No Iterations 328
time step continuity errors : sum local = 9.37471e-08, global = -1.41373e-20, cumulative = 6.02846e-20
ExecutionTime = 372.46 s  ClockTime = 15 s

End

