/*---------------------------------------------------------------------------*\
  =========                 |
  \\      /  F ield         | OpenFOAM: The Open Source CFD Toolbox
   \\    /   O peration     | Website:  https://openfoam.org
    \\  /    A nd           | Version:  8
     \\/     M anipulation  |
\*---------------------------------------------------------------------------*/
Build  : 8-13d66902f78c
Exec   : icoFoam
Date   : Jun 27 2021
Time   : 22:56:17
Host   : "uc2n528.localdomain"
PID    : 183194
I/O    : uncollated
Case   : /pfs/data5/home/kit/scc/nq7776/code/OGL_DATA/lidDrivenCavity3D/v0.1-118-gbd9d99d/f584ccac99/IntelXeonGold6230CPU@2.10GHz/Test_2021-06-27-22:26:13/50/p-BiCGStab-GKO-none-omp/lidDrivenCavity3D
nProcs : 1
sigFpe : Enabling floating point exception trapping (FOAM_SIGFPE).
fileModificationChecking : Monitoring run-time modified files using timeStampMaster (fileModificationSkew 10)
allowSystemOperations : Allowing user-supplied system call operations

// * * * * * * * * * * * * * * * * * * * * * * * * * * * * * * * * * * * * * //
Create time

Create mesh for time = 0

Reading transportProperties

Reading field p

Reading field U

Reading/calculating face flux field phi


Starting time loop

Time = 0.002

Courant Number mean: 0 max: 0
nonePBiCGStab:  Solving for Ux, Initial residual = 1, Final residual = 0.0592055, No Iterations 5
nonePBiCGStab:  Solving for Uy, Initial residual = 0, Final residual = 0, No Iterations 0
nonePBiCGStab:  Solving for Uz, Initial residual = 0, Final residual = 0, No Iterations 0
Gingko init_host_sparsity_pattern : 35 ms
 matrix not stored update host matrix 
Gingko update_host_mtx : 18 ms
matrix is not yet sorted, compute sorting idxs 
 compute sorting idxs 860000
Gingko compute_sort : 1008 ms
matrix is not yet sorted,  sorting host matrix 
Gingko sort_host_mtx_sparsity_pattern : 24 ms
Gingko sort_host_mtx : 15 ms
Gingko init_preconditioner : 0 ms
 get_precond == NULL
Gingko solve : 1067 ms
 copy back
 get iters 
noneompGKOBiCGStab:  Solving for p, Initial residual = 0, Final residual = 5.67034e-07, No Iterations 354
time step continuity errors : sum local = 2.71709e-07, global = -1.86488e-20, cumulative = -1.86488e-20
Gingko init_preconditioner : 0 ms
 get_precond == NULL
Gingko solve : 1055 ms
 copy back
 get iters 
noneompGKOBiCGStab:  Solving for p, Initial residual = 1, Final residual = 4.83346e-07, No Iterations 353
time step continuity errors : sum local = 2.97135e-08, global = 8.36904e-21, cumulative = -1.02797e-20
ExecutionTime = 69.76 s  ClockTime = 4 s

Time = 0.004

Courant Number mean: 0.0636233 max: 0.723792
nonePBiCGStab:  Solving for Ux, Initial residual = 0.144132, Final residual = 0.0219201, No Iterations 5
nonePBiCGStab:  Solving for Uy, Initial residual = 0.363932, Final residual = 0.0524163, No Iterations 5
nonePBiCGStab:  Solving for Uz, Initial residual = 0.973419, Final residual = 0.159847, No Iterations 5
Gingko init_preconditioner : 0 ms
 get_precond == NULL
Gingko solve : 988 ms
 copy back
 get iters 
noneompGKOBiCGStab:  Solving for p, Initial residual = 0.676726, Final residual = 5.92731e-07, No Iterations 349
time step continuity errors : sum local = 5.33014e-08, global = -4.25688e-20, cumulative = -5.28485e-20
Gingko init_preconditioner : 0 ms
 get_precond == NULL
Gingko solve : 979 ms
 copy back
 get iters 
noneompGKOBiCGStab:  Solving for p, Initial residual = 0.668446, Final residual = 9.25872e-07, No Iterations 351
time step continuity errors : sum local = 1.27367e-07, global = -3.77382e-20, cumulative = -9.05867e-20
ExecutionTime = 132.98 s  ClockTime = 6 s

Time = 0.006

Courant Number mean: 0.0972229 max: 0.862507
nonePBiCGStab:  Solving for Ux, Initial residual = 0.0524077, Final residual = 0.00685416, No Iterations 5
nonePBiCGStab:  Solving for Uy, Initial residual = 0.12712, Final residual = 0.020164, No Iterations 5
nonePBiCGStab:  Solving for Uz, Initial residual = 0.366249, Final residual = 0.0535031, No Iterations 5
Gingko init_preconditioner : 0 ms
 get_precond == NULL
Gingko solve : 963 ms
 copy back
 get iters 
noneompGKOBiCGStab:  Solving for p, Initial residual = 0.584581, Final residual = 9.91157e-07, No Iterations 349
time step continuity errors : sum local = 2.37237e-07, global = 2.59387e-20, cumulative = -6.4648e-20
Gingko init_preconditioner : 0 ms
 get_precond == NULL
Gingko solve : 992 ms
 copy back
 get iters 
noneompGKOBiCGStab:  Solving for p, Initial residual = 0.594529, Final residual = 8.94773e-07, No Iterations 349
time step continuity errors : sum local = 7.18827e-09, global = 3.37057e-20, cumulative = -3.09423e-20
ExecutionTime = 195.82 s  ClockTime = 8 s

Time = 0.008

Courant Number mean: 0.11379 max: 0.882477
nonePBiCGStab:  Solving for Ux, Initial residual = 0.0289544, Final residual = 0.00344574, No Iterations 5
nonePBiCGStab:  Solving for Uy, Initial residual = 0.084439, Final residual = 0.010908, No Iterations 5
nonePBiCGStab:  Solving for Uz, Initial residual = 0.229759, Final residual = 0.0313417, No Iterations 5
Gingko init_preconditioner : 0 ms
 get_precond == NULL
Gingko solve : 1006 ms
 copy back
 get iters 
noneompGKOBiCGStab:  Solving for p, Initial residual = 0.528738, Final residual = 9.18639e-07, No Iterations 350
time step continuity errors : sum local = 2.4597e-08, global = 4.43724e-21, cumulative = -2.65051e-20
Gingko init_preconditioner : 0 ms
 get_precond == NULL
Gingko solve : 986 ms
 copy back
 get iters 
noneompGKOBiCGStab:  Solving for p, Initial residual = 0.411358, Final residual = 9.71804e-07, No Iterations 356
time step continuity errors : sum local = 4.84594e-09, global = 1.65019e-20, cumulative = -1.00032e-20
ExecutionTime = 259.81 s  ClockTime = 10 s

Time = 0.01

Courant Number mean: 0.127336 max: 0.898877
nonePBiCGStab:  Solving for Ux, Initial residual = 0.0202762, Final residual = 0.00208586, No Iterations 5
nonePBiCGStab:  Solving for Uy, Initial residual = 0.050559, Final residual = 0.00623875, No Iterations 5
nonePBiCGStab:  Solving for Uz, Initial residual = 0.113266, Final residual = 0.0183057, No Iterations 5
Gingko init_preconditioner : 0 ms
 get_precond == NULL
Gingko solve : 923 ms
 copy back
 get iters 
noneompGKOBiCGStab:  Solving for p, Initial residual = 0.342609, Final residual = 9.61808e-07, No Iterations 334
time step continuity errors : sum local = 2.43918e-09, global = 7.92945e-20, cumulative = 6.92913e-20
Gingko init_preconditioner : 0 ms
 get_precond == NULL
Gingko solve : 895 ms
 copy back
 get iters 
noneompGKOBiCGStab:  Solving for p, Initial residual = 0.354003, Final residual = 9.61784e-07, No Iterations 324
time step continuity errors : sum local = 7.02684e-08, global = -6.23737e-20, cumulative = 6.91754e-21
ExecutionTime = 318.26 s  ClockTime = 12 s

End

