/*---------------------------------------------------------------------------*\
  =========                 |
  \\      /  F ield         | OpenFOAM: The Open Source CFD Toolbox
   \\    /   O peration     | Website:  https://openfoam.org
    \\  /    A nd           | Version:  8
     \\/     M anipulation  |
\*---------------------------------------------------------------------------*/
Build  : 8-13d66902f78c
Exec   : icoFoam
Date   : Jun 26 2021
Time   : 23:53:06
Host   : "uc2n454.localdomain"
PID    : 1992802
I/O    : uncollated
Case   : /pfs/data5/home/kit/scc/nq7776/code/OGL_DATA/lidDrivenCavity3D/v0.1-117-g6793da2/f584ccac99/IntelXeonGold6230CPU@2.10GHz/Test_2021-06-26-23:18:48/50/p-BiCGStab-GKO-BJ-omp/lidDrivenCavity3D
nProcs : 1
sigFpe : Enabling floating point exception trapping (FOAM_SIGFPE).
fileModificationChecking : Monitoring run-time modified files using timeStampMaster (fileModificationSkew 10)
allowSystemOperations : Allowing user-supplied system call operations

// * * * * * * * * * * * * * * * * * * * * * * * * * * * * * * * * * * * * * //
Create time

Create mesh for time = 0

Reading transportProperties

Reading field p

Reading field U

Reading/calculating face flux field phi


Starting time loop

Time = 0.002

Courant Number mean: 0 max: 0
nonePBiCGStab:  Solving for Ux, Initial residual = 1, Final residual = 0.0592055, No Iterations 5
nonePBiCGStab:  Solving for Uy, Initial residual = 0, Final residual = 0, No Iterations 0
nonePBiCGStab:  Solving for Uz, Initial residual = 0, Final residual = 0, No Iterations 0
Gingko init_host_sparsity_pattern : 35 ms
 matrix not stored update host matrix 
Gingko update_host_mtx : 18 ms
matrix is not yet sorted, compute sorting idxs 
 compute sorting idxs 860000
Gingko compute_sort : 997 ms
matrix is not yet sorted,  sorting host matrix 
Gingko sort_host_mtx_sparsity_pattern : 23 ms
Gingko sort_host_mtx : 14 ms
Gingko init_preconditioner : 6 ms
Gingko solve : 1411 ms
 copy back
 get iters 
BJompGKOBiCGStab:  Solving for p, Initial residual = 0, Final residual = 9.53558e-07, No Iterations 281
time step continuity errors : sum local = 2.92948e-09, global = -7.52993e-21, cumulative = -7.52993e-21
 found preconditioner 
Gingko init_preconditioner : 0 ms
Gingko solve : 1290 ms
 copy back
 get iters 
BJompGKOBiCGStab:  Solving for p, Initial residual = 1, Final residual = 9.28234e-07, No Iterations 269
time step continuity errors : sum local = 3.80132e-08, global = 2.09762e-20, cumulative = 1.34463e-20
ExecutionTime = 23.4 s  ClockTime = 4 s

Time = 0.004

Courant Number mean: 0.0636233 max: 0.723792
nonePBiCGStab:  Solving for Ux, Initial residual = 0.144135, Final residual = 0.02192, No Iterations 5
nonePBiCGStab:  Solving for Uy, Initial residual = 0.363931, Final residual = 0.052282, No Iterations 5
nonePBiCGStab:  Solving for Uz, Initial residual = 0.973551, Final residual = 0.158925, No Iterations 5
 found preconditioner 
Gingko init_preconditioner : 0 ms
Gingko solve : 1318 ms
 copy back
 get iters 
BJompGKOBiCGStab:  Solving for p, Initial residual = 0.676727, Final residual = 9.42575e-07, No Iterations 271
time step continuity errors : sum local = 4.61785e-08, global = -1.65229e-20, cumulative = -3.07658e-21
 found preconditioner 
Gingko init_preconditioner : 0 ms
Gingko solve : 1178 ms
 copy back
 get iters 
BJompGKOBiCGStab:  Solving for p, Initial residual = 0.668515, Final residual = 1.52154e-07, No Iterations 246
time step continuity errors : sum local = 8.04819e-07, global = -1.49307e-20, cumulative = -1.80073e-20
ExecutionTime = 43.52 s  ClockTime = 7 s

Time = 0.006

Courant Number mean: 0.0972277 max: 0.862514
nonePBiCGStab:  Solving for Ux, Initial residual = 0.0524091, Final residual = 0.00685412, No Iterations 5
nonePBiCGStab:  Solving for Uy, Initial residual = 0.127086, Final residual = 0.0201529, No Iterations 5
nonePBiCGStab:  Solving for Uz, Initial residual = 0.365928, Final residual = 0.0535301, No Iterations 5
 found preconditioner 
Gingko init_preconditioner : 0 ms
Gingko solve : 1270 ms
 copy back
 get iters 
BJompGKOBiCGStab:  Solving for p, Initial residual = 0.584671, Final residual = 9.5097e-07, No Iterations 266
time step continuity errors : sum local = 5.15226e-09, global = -1.8827e-21, cumulative = -1.989e-20
 found preconditioner 
Gingko init_preconditioner : 0 ms
Gingko solve : 1231 ms
 copy back
 get iters 
BJompGKOBiCGStab:  Solving for p, Initial residual = 0.594664, Final residual = 7.3028e-07, No Iterations 257
time step continuity errors : sum local = 1.4251e-08, global = 1.17415e-20, cumulative = -8.14851e-21
ExecutionTime = 63.67 s  ClockTime = 9 s

Time = 0.008

Courant Number mean: 0.113793 max: 0.882479
nonePBiCGStab:  Solving for Ux, Initial residual = 0.028957, Final residual = 0.00344529, No Iterations 5
nonePBiCGStab:  Solving for Uy, Initial residual = 0.0844342, Final residual = 0.0109733, No Iterations 5
nonePBiCGStab:  Solving for Uz, Initial residual = 0.229708, Final residual = 0.0313108, No Iterations 5
 found preconditioner 
Gingko init_preconditioner : 0 ms
Gingko solve : 1259 ms
 copy back
 get iters 
BJompGKOBiCGStab:  Solving for p, Initial residual = 0.528763, Final residual = 9.27115e-07, No Iterations 264
time step continuity errors : sum local = 1.49955e-09, global = 1.96187e-20, cumulative = 1.14702e-20
 found preconditioner 
Gingko init_preconditioner : 0 ms
Gingko solve : 1183 ms
 copy back
 get iters 
BJompGKOBiCGStab:  Solving for p, Initial residual = 0.411559, Final residual = 7.6958e-07, No Iterations 248
time step continuity errors : sum local = 9.95202e-09, global = -3.59418e-21, cumulative = 7.87602e-21
ExecutionTime = 83.35 s  ClockTime = 12 s

Time = 0.01

Courant Number mean: 0.127337 max: 0.898875
nonePBiCGStab:  Solving for Ux, Initial residual = 0.0202766, Final residual = 0.00208543, No Iterations 5
nonePBiCGStab:  Solving for Uy, Initial residual = 0.0505727, Final residual = 0.00625858, No Iterations 5
nonePBiCGStab:  Solving for Uz, Initial residual = 0.113246, Final residual = 0.0182368, No Iterations 5
 found preconditioner 
Gingko init_preconditioner : 0 ms
Gingko solve : 1213 ms
 copy back
 get iters 
BJompGKOBiCGStab:  Solving for p, Initial residual = 0.342777, Final residual = 8.06902e-07, No Iterations 255
time step continuity errors : sum local = 1.07094e-09, global = 7.60766e-21, cumulative = 1.54837e-20
 found preconditioner 
Gingko init_preconditioner : 0 ms
Gingko solve : 1204 ms
 copy back
 get iters 
BJompGKOBiCGStab:  Solving for p, Initial residual = 0.354103, Final residual = 7.49969e-07, No Iterations 252
time step continuity errors : sum local = 9.89964e-09, global = -1.25569e-20, cumulative = 2.92675e-21
ExecutionTime = 102.83 s  ClockTime = 14 s

End

