/*---------------------------------------------------------------------------*\
  =========                 |
  \\      /  F ield         | OpenFOAM: The Open Source CFD Toolbox
   \\    /   O peration     | Website:  https://openfoam.org
    \\  /    A nd           | Version:  8
     \\/     M anipulation  |
\*---------------------------------------------------------------------------*/
Build  : 8-13d66902f78c
Exec   : icoFoam
Date   : Jun 24 2021
Time   : 16:26:32
Host   : "uc2n448.localdomain"
PID    : 2421391
I/O    : uncollated
Case   : /pfs/data5/home/kit/scc/nq7776/code/OGL_DATA/lidDrivenCavity3D/v0.1-113-g8300f3e/f584ccac99/IntelXeonGold6230CPU@2.10GHz/Test_2021-06-24-16:08:25/50/p-U-CG-GKO-none-omp/lidDrivenCavity3D
nProcs : 1
sigFpe : Enabling floating point exception trapping (FOAM_SIGFPE).
fileModificationChecking : Monitoring run-time modified files using timeStampMaster (fileModificationSkew 10)
allowSystemOperations : Allowing user-supplied system call operations

// * * * * * * * * * * * * * * * * * * * * * * * * * * * * * * * * * * * * * //
Create time

Create mesh for time = 0

Reading transportProperties

Reading field p

Reading field U

Reading/calculating face flux field phi


Starting time loop

Time = 0.002

Courant Number mean: 0 max: 0
Gingko init_host_sparsity_pattern : 36 ms
 matrix not stored update host matrix 
Gingko update_host_mtx : 18 ms
matrix is not yet sorted, compute sorting idxs 
 compute sorting idxs 860000
Gingko compute_sort : 997 ms
matrix is not yet sorted,  sorting host matrix 
Gingko sort_host_mtx_sparsity_pattern : 23 ms
Gingko sort_host_mtx : 15 ms
Gingko init_preconditioner : 0 ms
 get_precond == NULL
Gingko solve : 119 ms
 copy back
 get iters 
noneompGKOBiCGStab:  Solving for Ux, Initial residual = 0, Final residual = 8.72813e-07, No Iterations 41
Gingko init_host_sparsity_pattern : 34 ms
 matrix not stored update host matrix 
Gingko update_host_mtx : 18 ms
matrix is not yet sorted,  sorting host matrix 
Gingko sort_host_mtx_sparsity_pattern : 23 ms
Gingko sort_host_mtx : 12 ms
Gingko init_preconditioner : 0 ms
 get_precond == NULL
Gingko solve : 2 ms
 copy back
 get iters 
noneompGKOBiCGStab:  Solving for Uy, Initial residual = 1, Final residual = 0, No Iterations 0
Gingko init_host_sparsity_pattern : 34 ms
 matrix not stored update host matrix 
Gingko update_host_mtx : 16 ms
matrix is not yet sorted,  sorting host matrix 
Gingko sort_host_mtx_sparsity_pattern : 23 ms
Gingko sort_host_mtx : 12 ms
Gingko init_preconditioner : 0 ms
 get_precond == NULL
Gingko solve : 2 ms
 copy back
 get iters 
noneompGKOBiCGStab:  Solving for Uz, Initial residual = 0, Final residual = 0, No Iterations 0
Gingko init_host_sparsity_pattern : 33 ms
 matrix not stored update host matrix 
Gingko update_host_mtx : 18 ms
matrix is not yet sorted,  sorting host matrix 
Gingko sort_host_mtx_sparsity_pattern : 22 ms
Gingko sort_host_mtx : 14 ms
Gingko init_preconditioner : 0 ms
 get_precond == NULL
Gingko solve : 684 ms
 copy back
 get iters 
noneompGKOCG:  Solving for p, Initial residual = 0, Final residual = 9.26408e-07, No Iterations 444
time step continuity errors : sum local = 1.52542e-09, global = -9.34608e-21, cumulative = -9.34608e-21
Gingko init_preconditioner : 0 ms
 get_precond == NULL
Gingko solve : 706 ms
 copy back
 get iters 
noneompGKOCG:  Solving for p, Initial residual = 1, Final residual = 9.50146e-07, No Iterations 440
time step continuity errors : sum local = 2.07431e-09, global = -9.90752e-21, cumulative = -1.92536e-20
ExecutionTime = 51.59 s  ClockTime = 4 s

Time = 0.004

Courant Number mean: 0.0720722 max: 0.726639
Gingko init_host_sparsity_pattern : 33 ms
 matrix not stored update host matrix 
Gingko update_host_mtx : 19 ms
matrix is not yet sorted,  sorting host matrix 
Gingko sort_host_mtx_sparsity_pattern : 28 ms
Gingko sort_host_mtx : 12 ms
Gingko init_preconditioner : 0 ms
 get_precond == NULL
Gingko solve : 116 ms
 copy back
 get iters 
noneompGKOBiCGStab:  Solving for Ux, Initial residual = 0.721583, Final residual = 6.40778e-07, No Iterations 38
Gingko init_host_sparsity_pattern : 34 ms
 matrix not stored update host matrix 
Gingko update_host_mtx : 16 ms
matrix is not yet sorted,  sorting host matrix 
Gingko sort_host_mtx_sparsity_pattern : 21 ms
Gingko sort_host_mtx : 12 ms
Gingko init_preconditioner : 0 ms
 get_precond == NULL
Gingko solve : 122 ms
 copy back
 get iters 
noneompGKOBiCGStab:  Solving for Uy, Initial residual = 0.203465, Final residual = 6.64683e-07, No Iterations 40
Gingko init_host_sparsity_pattern : 34 ms
 matrix not stored update host matrix 
Gingko update_host_mtx : 16 ms
matrix is not yet sorted,  sorting host matrix 
Gingko sort_host_mtx_sparsity_pattern : 21 ms
Gingko sort_host_mtx : 12 ms
Gingko init_preconditioner : 0 ms
 get_precond == NULL
Gingko solve : 123 ms
 copy back
 get iters 
noneompGKOBiCGStab:  Solving for Uz, Initial residual = 0.618431, Final residual = 7.73993e-07, No Iterations 40
Gingko init_preconditioner : 0 ms
 get_precond == NULL
Gingko solve : 684 ms
 copy back
 get iters 
noneompGKOCG:  Solving for p, Initial residual = 0.536266, Final residual = 9.94492e-07, No Iterations 433
time step continuity errors : sum local = 2.3588e-09, global = -1.06635e-20, cumulative = -2.99171e-20
Gingko init_preconditioner : 0 ms
 get_precond == NULL
Gingko solve : 667 ms
 copy back
 get iters 
noneompGKOCG:  Solving for p, Initial residual = 0.673318, Final residual = 9.83484e-07, No Iterations 433
time step continuity errors : sum local = 2.39416e-09, global = 3.24767e-20, cumulative = 2.55959e-21
ExecutionTime = 107.8 s  ClockTime = 6 s

Time = 0.006

Courant Number mean: 0.107408 max: 0.881754
Gingko init_host_sparsity_pattern : 35 ms
 matrix not stored update host matrix 
Gingko update_host_mtx : 17 ms
matrix is not yet sorted,  sorting host matrix 
Gingko sort_host_mtx_sparsity_pattern : 24 ms
Gingko sort_host_mtx : 13 ms
Gingko init_preconditioner : 0 ms
 get_precond == NULL
Gingko solve : 102 ms
 copy back
 get iters 
noneompGKOBiCGStab:  Solving for Ux, Initial residual = 0.598888, Final residual = 9.59695e-07, No Iterations 35
Gingko init_host_sparsity_pattern : 34 ms
 matrix not stored update host matrix 
Gingko update_host_mtx : 16 ms
matrix is not yet sorted,  sorting host matrix 
Gingko sort_host_mtx_sparsity_pattern : 22 ms
Gingko sort_host_mtx : 12 ms
Gingko init_preconditioner : 0 ms
 get_precond == NULL
Gingko solve : 107 ms
 copy back
 get iters 
noneompGKOBiCGStab:  Solving for Uy, Initial residual = 0.0995684, Final residual = 4.64921e-07, No Iterations 36
Gingko init_host_sparsity_pattern : 34 ms
 matrix not stored update host matrix 
Gingko update_host_mtx : 16 ms
matrix is not yet sorted,  sorting host matrix 
Gingko sort_host_mtx_sparsity_pattern : 22 ms
Gingko sort_host_mtx : 12 ms
Gingko init_preconditioner : 0 ms
 get_precond == NULL
Gingko solve : 129 ms
 copy back
 get iters 
noneompGKOBiCGStab:  Solving for Uz, Initial residual = 0.249971, Final residual = 8.89744e-07, No Iterations 40
Gingko init_preconditioner : 0 ms
 get_precond == NULL
Gingko solve : 641 ms
 copy back
 get iters 
noneompGKOCG:  Solving for p, Initial residual = 0.540969, Final residual = 9.19883e-07, No Iterations 437
time step continuity errors : sum local = 1.5665e-09, global = -3.79568e-20, cumulative = -3.53972e-20
Gingko init_preconditioner : 0 ms
 get_precond == NULL
Gingko solve : 635 ms
 copy back
 get iters 
noneompGKOCG:  Solving for p, Initial residual = 0.606913, Final residual = 9.52798e-07, No Iterations 436
time step continuity errors : sum local = 1.56843e-09, global = -5.97755e-20, cumulative = -9.51727e-20
ExecutionTime = 160.78 s  ClockTime = 8 s

Time = 0.008

Courant Number mean: 0.123245 max: 0.890103
Gingko init_host_sparsity_pattern : 33 ms
 matrix not stored update host matrix 
Gingko update_host_mtx : 17 ms
matrix is not yet sorted,  sorting host matrix 
Gingko sort_host_mtx_sparsity_pattern : 22 ms
Gingko sort_host_mtx : 12 ms
Gingko init_preconditioner : 0 ms
 get_precond == NULL
Gingko solve : 92 ms
 copy back
 get iters 
noneompGKOBiCGStab:  Solving for Ux, Initial residual = 0.560871, Final residual = 8.32792e-07, No Iterations 31
Gingko init_host_sparsity_pattern : 34 ms
 matrix not stored update host matrix 
Gingko update_host_mtx : 16 ms
matrix is not yet sorted,  sorting host matrix 
Gingko sort_host_mtx_sparsity_pattern : 21 ms
Gingko sort_host_mtx : 12 ms
Gingko init_preconditioner : 0 ms
 get_precond == NULL
Gingko solve : 103 ms
 copy back
 get iters 
noneompGKOBiCGStab:  Solving for Uy, Initial residual = 0.0341425, Final residual = 5.91727e-07, No Iterations 35
Gingko init_host_sparsity_pattern : 34 ms
 matrix not stored update host matrix 
Gingko update_host_mtx : 16 ms
matrix is not yet sorted,  sorting host matrix 
Gingko sort_host_mtx_sparsity_pattern : 21 ms
Gingko sort_host_mtx : 12 ms
Gingko init_preconditioner : 0 ms
 get_precond == NULL
Gingko solve : 111 ms
 copy back
 get iters 
noneompGKOBiCGStab:  Solving for Uz, Initial residual = 0.132375, Final residual = 6.72417e-07, No Iterations 38
Gingko init_preconditioner : 0 ms
 get_precond == NULL
Gingko solve : 671 ms
 copy back
 get iters 
noneompGKOCG:  Solving for p, Initial residual = 0.471944, Final residual = 9.24377e-07, No Iterations 435
time step continuity errors : sum local = 1.45952e-09, global = 4.49286e-20, cumulative = -5.02441e-20
Gingko init_preconditioner : 0 ms
 get_precond == NULL
Gingko solve : 663 ms
 copy back
 get iters 
noneompGKOCG:  Solving for p, Initial residual = 0.42304, Final residual = 9.83812e-07, No Iterations 433
time step continuity errors : sum local = 1.57579e-09, global = -5.07637e-20, cumulative = -1.01008e-19
ExecutionTime = 214.6 s  ClockTime = 10 s

Time = 0.01

Courant Number mean: 0.136097 max: 0.906942
Gingko init_host_sparsity_pattern : 33 ms
 matrix not stored update host matrix 
Gingko update_host_mtx : 16 ms
matrix is not yet sorted,  sorting host matrix 
Gingko sort_host_mtx_sparsity_pattern : 21 ms
Gingko sort_host_mtx : 12 ms
Gingko init_preconditioner : 0 ms
 get_precond == NULL
Gingko solve : 88 ms
 copy back
 get iters 
noneompGKOBiCGStab:  Solving for Ux, Initial residual = 0.368381, Final residual = 9.76153e-07, No Iterations 29
Gingko init_host_sparsity_pattern : 34 ms
 matrix not stored update host matrix 
Gingko update_host_mtx : 16 ms
matrix is not yet sorted,  sorting host matrix 
Gingko sort_host_mtx_sparsity_pattern : 21 ms
Gingko sort_host_mtx : 13 ms
Gingko init_preconditioner : 0 ms
 get_precond == NULL
Gingko solve : 94 ms
 copy back
 get iters 
noneompGKOBiCGStab:  Solving for Uy, Initial residual = 0.0230738, Final residual = 8.16079e-07, No Iterations 32
Gingko init_host_sparsity_pattern : 34 ms
 matrix not stored update host matrix 
Gingko update_host_mtx : 16 ms
matrix is not yet sorted,  sorting host matrix 
Gingko sort_host_mtx_sparsity_pattern : 21 ms
Gingko sort_host_mtx : 12 ms
Gingko init_preconditioner : 0 ms
 get_precond == NULL
Gingko solve : 105 ms
 copy back
 get iters 
noneompGKOBiCGStab:  Solving for Uz, Initial residual = 0.0484112, Final residual = 7.89941e-07, No Iterations 36
Gingko init_preconditioner : 0 ms
 get_precond == NULL
Gingko solve : 659 ms
 copy back
 get iters 
noneompGKOCG:  Solving for p, Initial residual = 0.15905, Final residual = 9.24797e-07, No Iterations 434
time step continuity errors : sum local = 1.26359e-09, global = -2.08772e-20, cumulative = -1.21885e-19
Gingko init_preconditioner : 0 ms
 get_precond == NULL
Gingko solve : 712 ms
 copy back
 get iters 
noneompGKOCG:  Solving for p, Initial residual = 0.361666, Final residual = 9.50894e-07, No Iterations 433
time step continuity errors : sum local = 1.28761e-09, global = -8.93741e-21, cumulative = -1.30822e-19
ExecutionTime = 268.99 s  ClockTime = 12 s

End

