/*---------------------------------------------------------------------------*\
  =========                 |
  \\      /  F ield         | OpenFOAM: The Open Source CFD Toolbox
   \\    /   O peration     | Website:  https://openfoam.org
    \\  /    A nd           | Version:  8
     \\/     M anipulation  |
\*---------------------------------------------------------------------------*/
Build  : 8-13d66902f78c
Exec   : icoFoam
Date   : Jun 26 2021
Time   : 23:51:19
Host   : "uc2n454.localdomain"
PID    : 1992593
I/O    : uncollated
Case   : /pfs/data5/home/kit/scc/nq7776/code/OGL_DATA/lidDrivenCavity3D/v0.1-117-g6793da2/f584ccac99/IntelXeonGold6230CPU@2.10GHz/Test_2021-06-26-23:18:48/50/p-BiCGStab-GKO-BJ-omp/lidDrivenCavity3D
nProcs : 1
sigFpe : Enabling floating point exception trapping (FOAM_SIGFPE).
fileModificationChecking : Monitoring run-time modified files using timeStampMaster (fileModificationSkew 10)
allowSystemOperations : Allowing user-supplied system call operations

// * * * * * * * * * * * * * * * * * * * * * * * * * * * * * * * * * * * * * //
Create time

Create mesh for time = 0

Reading transportProperties

Reading field p

Reading field U

Reading/calculating face flux field phi


Starting time loop

Time = 0.002

Courant Number mean: 0 max: 0
nonePBiCGStab:  Solving for Ux, Initial residual = 1, Final residual = 0.0592055, No Iterations 5
nonePBiCGStab:  Solving for Uy, Initial residual = 0, Final residual = 0, No Iterations 0
nonePBiCGStab:  Solving for Uz, Initial residual = 0, Final residual = 0, No Iterations 0
Gingko init_host_sparsity_pattern : 35 ms
 matrix not stored update host matrix 
Gingko update_host_mtx : 18 ms
matrix is not yet sorted, compute sorting idxs 
 compute sorting idxs 860000
Gingko compute_sort : 1002 ms
matrix is not yet sorted,  sorting host matrix 
Gingko sort_host_mtx_sparsity_pattern : 23 ms
Gingko sort_host_mtx : 15 ms
Gingko init_preconditioner : 10 ms
Gingko solve : 2032 ms
 copy back
 get iters 
BJompGKOBiCGStab:  Solving for p, Initial residual = 0, Final residual = 9.53558e-07, No Iterations 281
time step continuity errors : sum local = 2.92948e-09, global = -7.52993e-21, cumulative = -7.52993e-21
 found preconditioner 
Gingko init_preconditioner : 0 ms
Gingko solve : 1934 ms
 copy back
 get iters 
BJompGKOBiCGStab:  Solving for p, Initial residual = 1, Final residual = 9.28234e-07, No Iterations 269
time step continuity errors : sum local = 9.78433e-09, global = 2.1026e-20, cumulative = 1.34961e-20
ExecutionTime = 17.59 s  ClockTime = 6 s

Time = 0.004

Courant Number mean: 0.0636233 max: 0.723792
nonePBiCGStab:  Solving for Ux, Initial residual = 0.144135, Final residual = 0.02192, No Iterations 5
nonePBiCGStab:  Solving for Uy, Initial residual = 0.363931, Final residual = 0.0522819, No Iterations 5
nonePBiCGStab:  Solving for Uz, Initial residual = 0.973596, Final residual = 0.158927, No Iterations 5
 found preconditioner 
Gingko init_preconditioner : 0 ms
Gingko solve : 1908 ms
 copy back
 get iters 
BJompGKOBiCGStab:  Solving for p, Initial residual = 0.676727, Final residual = 9.80785e-07, No Iterations 264
time step continuity errors : sum local = 3.58352e-08, global = 2.93101e-20, cumulative = 4.28063e-20
 found preconditioner 
Gingko init_preconditioner : 0 ms
Gingko solve : 1822 ms
 copy back
 get iters 
BJompGKOBiCGStab:  Solving for p, Initial residual = 0.668515, Final residual = 9.24031e-07, No Iterations 255
time step continuity errors : sum local = 9.43325e-09, global = -8.97655e-21, cumulative = 3.38297e-20
ExecutionTime = 32.65 s  ClockTime = 10 s

Time = 0.006

Courant Number mean: 0.0972275 max: 0.862514
nonePBiCGStab:  Solving for Ux, Initial residual = 0.052415, Final residual = 0.00685479, No Iterations 5
nonePBiCGStab:  Solving for Uy, Initial residual = 0.127058, Final residual = 0.0201205, No Iterations 5
nonePBiCGStab:  Solving for Uz, Initial residual = 0.366511, Final residual = 0.0530435, No Iterations 5
 found preconditioner 
Gingko init_preconditioner : 0 ms
Gingko solve : 1802 ms
 copy back
 get iters 
BJompGKOBiCGStab:  Solving for p, Initial residual = 0.58467, Final residual = 9.36665e-07, No Iterations 254
time step continuity errors : sum local = 2.85907e-09, global = -4.51545e-21, cumulative = 2.93143e-20
 found preconditioner 
Gingko init_preconditioner : 0 ms
Gingko solve : 1856 ms
 copy back
 get iters 
BJompGKOBiCGStab:  Solving for p, Initial residual = 0.594546, Final residual = 9.2057e-07, No Iterations 263
time step continuity errors : sum local = 7.43281e-09, global = 5.82359e-21, cumulative = 3.51378e-20
ExecutionTime = 47.41 s  ClockTime = 14 s

Time = 0.008

Courant Number mean: 0.113794 max: 0.88248
nonePBiCGStab:  Solving for Ux, Initial residual = 0.0289582, Final residual = 0.00344507, No Iterations 5
nonePBiCGStab:  Solving for Uy, Initial residual = 0.0844226, Final residual = 0.0109194, No Iterations 5
nonePBiCGStab:  Solving for Uz, Initial residual = 0.229205, Final residual = 0.0297717, No Iterations 5
 found preconditioner 
Gingko init_preconditioner : 0 ms
Gingko solve : 1923 ms
 copy back
 get iters 
BJompGKOBiCGStab:  Solving for p, Initial residual = 0.528704, Final residual = 9.73353e-07, No Iterations 269
time step continuity errors : sum local = 1.71982e-09, global = 1.21526e-20, cumulative = 4.72905e-20
 found preconditioner 
Gingko init_preconditioner : 0 ms
Gingko solve : 1814 ms
 copy back
 get iters 
BJompGKOBiCGStab:  Solving for p, Initial residual = 0.411428, Final residual = 9.47028e-07, No Iterations 257
time step continuity errors : sum local = 1.89468e-09, global = -1.25938e-20, cumulative = 3.46966e-20
ExecutionTime = 62.49 s  ClockTime = 18 s

Time = 0.01

Courant Number mean: 0.127339 max: 0.898877
nonePBiCGStab:  Solving for Ux, Initial residual = 0.0202776, Final residual = 0.00208486, No Iterations 5
nonePBiCGStab:  Solving for Uy, Initial residual = 0.0505578, Final residual = 0.00623594, No Iterations 5
nonePBiCGStab:  Solving for Uz, Initial residual = 0.112889, Final residual = 0.0180664, No Iterations 5
 found preconditioner 
Gingko init_preconditioner : 0 ms
Gingko solve : 1735 ms
 copy back
 get iters 
BJompGKOBiCGStab:  Solving for p, Initial residual = 0.342689, Final residual = 4.85543e-07, No Iterations 243
time step continuity errors : sum local = 4.06009e-08, global = 6.39822e-21, cumulative = 4.10948e-20
 found preconditioner 
Gingko init_preconditioner : 0 ms
Gingko solve : 1836 ms
 copy back
 get iters 
BJompGKOBiCGStab:  Solving for p, Initial residual = 0.35404, Final residual = 3.34147e-07, No Iterations 260
time step continuity errors : sum local = 4.96463e-08, global = 1.74754e-20, cumulative = 5.85703e-20
ExecutionTime = 76.89 s  ClockTime = 21 s

End

