/*---------------------------------------------------------------------------*\
  =========                 |
  \\      /  F ield         | OpenFOAM: The Open Source CFD Toolbox
   \\    /   O peration     | Website:  https://openfoam.org
    \\  /    A nd           | Version:  8
     \\/     M anipulation  |
\*---------------------------------------------------------------------------*/
Build  : 8-13d66902f78c
Exec   : icoFoam
Date   : Jun 24 2021
Time   : 11:33:33
Host   : "uc2n428.localdomain"
PID    : 3987200
I/O    : uncollated
Case   : /pfs/data5/home/kit/scc/nq7776/code/OGL_DATA/lidDrivenCavity3D/v0.1-113-g8300f3e/f584ccac99/IntelXeonGold6230CPU@2.10GHz/Test_2021-06-24-11:01:02/50/p-BiCGStab-GKO-none-omp/lidDrivenCavity3D
nProcs : 1
sigFpe : Enabling floating point exception trapping (FOAM_SIGFPE).
fileModificationChecking : Monitoring run-time modified files using timeStampMaster (fileModificationSkew 10)
allowSystemOperations : Allowing user-supplied system call operations

// * * * * * * * * * * * * * * * * * * * * * * * * * * * * * * * * * * * * * //
Create time

Create mesh for time = 0

Reading transportProperties

Reading field p

Reading field U

Reading/calculating face flux field phi


Starting time loop

Time = 0.002

Courant Number mean: 0 max: 0
nonePBiCGStab:  Solving for Ux, Initial residual = 1, Final residual = 0.0592055, No Iterations 5
nonePBiCGStab:  Solving for Uy, Initial residual = 0, Final residual = 0, No Iterations 0
nonePBiCGStab:  Solving for Uz, Initial residual = 0, Final residual = 0, No Iterations 0
Gingko init_host_sparsity_pattern : 35 ms
 matrix not stored update host matrix 
Gingko update_host_mtx : 18 ms
matrix is not yet sorted, compute sorting idxs 
 compute sorting idxs 860000
Gingko compute_sort : 993 ms
matrix is not yet sorted,  sorting host matrix 
Gingko sort_host_mtx_sparsity_pattern : 23 ms
Gingko sort_host_mtx : 15 ms
Gingko init_preconditioner : 0 ms
 get_precond == NULL
Gingko solve : 1053 ms
 copy back
 get iters 
noneompGKOBiCGStab:  Solving for p, Initial residual = 0, Final residual = 5.67034e-07, No Iterations 354
time step continuity errors : sum local = 2.47788e-07, global = -1.86533e-20, cumulative = -1.86533e-20
Gingko init_preconditioner : 0 ms
 get_precond == NULL
Gingko solve : 901 ms
 copy back
 get iters 
noneompGKOBiCGStab:  Solving for p, Initial residual = 1, Final residual = 4.79506e-07, No Iterations 342
time step continuity errors : sum local = 1.16663e-07, global = -6.07417e-21, cumulative = -2.47275e-20
ExecutionTime = 33.11 s  ClockTime = 4 s

Time = 0.004

Courant Number mean: 0.0636233 max: 0.723792
nonePBiCGStab:  Solving for Ux, Initial residual = 0.144132, Final residual = 0.0219195, No Iterations 5
nonePBiCGStab:  Solving for Uy, Initial residual = 0.363932, Final residual = 0.0523513, No Iterations 5
nonePBiCGStab:  Solving for Uz, Initial residual = 0.973264, Final residual = 0.159214, No Iterations 5
Gingko init_preconditioner : 0 ms
 get_precond == NULL
Gingko solve : 939 ms
 copy back
 get iters 
noneompGKOBiCGStab:  Solving for p, Initial residual = 0.676724, Final residual = 6.15215e-07, No Iterations 350
time step continuity errors : sum local = 1.30989e-07, global = 2.2969e-20, cumulative = -1.75851e-21
Gingko init_preconditioner : 0 ms
 get_precond == NULL
Gingko solve : 934 ms
 copy back
 get iters 
noneompGKOBiCGStab:  Solving for p, Initial residual = 0.66844, Final residual = 9.83636e-07, No Iterations 345
time step continuity errors : sum local = 1.73262e-07, global = -3.10237e-20, cumulative = -3.27822e-20
ExecutionTime = 63.25 s  ClockTime = 6 s

Time = 0.006

Courant Number mean: 0.0972237 max: 0.862508
nonePBiCGStab:  Solving for Ux, Initial residual = 0.052409, Final residual = 0.00685392, No Iterations 5
nonePBiCGStab:  Solving for Uy, Initial residual = 0.127099, Final residual = 0.0201653, No Iterations 5
nonePBiCGStab:  Solving for Uz, Initial residual = 0.366106, Final residual = 0.0531373, No Iterations 5
Gingko init_preconditioner : 0 ms
 get_precond == NULL
Gingko solve : 902 ms
 copy back
 get iters 
noneompGKOBiCGStab:  Solving for p, Initial residual = 0.584604, Final residual = 6.47484e-07, No Iterations 338
time step continuity errors : sum local = 3.28191e-07, global = -4.47368e-21, cumulative = -3.72559e-20
Gingko init_preconditioner : 0 ms
 get_precond == NULL
Gingko solve : 983 ms
 copy back
 get iters 
noneompGKOBiCGStab:  Solving for p, Initial residual = 0.594522, Final residual = 9.552e-07, No Iterations 367
time step continuity errors : sum local = 3.57844e-08, global = 3.11018e-20, cumulative = -6.15412e-21
ExecutionTime = 93.6 s  ClockTime = 8 s

Time = 0.008

Courant Number mean: 0.11379 max: 0.882476
nonePBiCGStab:  Solving for Ux, Initial residual = 0.028951, Final residual = 0.00344579, No Iterations 5
nonePBiCGStab:  Solving for Uy, Initial residual = 0.0844464, Final residual = 0.0109259, No Iterations 5
nonePBiCGStab:  Solving for Uz, Initial residual = 0.230282, Final residual = 0.0317521, No Iterations 5
Gingko init_preconditioner : 0 ms
 get_precond == NULL
Gingko solve : 944 ms
 copy back
 get iters 
noneompGKOBiCGStab:  Solving for p, Initial residual = 0.528738, Final residual = 9.48652e-07, No Iterations 353
time step continuity errors : sum local = 1.37314e-08, global = -2.77244e-20, cumulative = -3.38785e-20
Gingko init_preconditioner : 0 ms
 get_precond == NULL
Gingko solve : 599 ms
 copy back
 get iters 
noneompGKOBiCGStab:  Solving for p, Initial residual = 0.411402, Final residual = 6.66882e-07, No Iterations 224
time step continuity errors : sum local = 2.41424e-09, global = 2.66092e-21, cumulative = -3.12176e-20
ExecutionTime = 118.47 s  ClockTime = 9 s

Time = 0.01

Courant Number mean: 0.127334 max: 0.898876
nonePBiCGStab:  Solving for Ux, Initial residual = 0.0202793, Final residual = 0.00208616, No Iterations 5
nonePBiCGStab:  Solving for Uy, Initial residual = 0.0505566, Final residual = 0.00623495, No Iterations 5
nonePBiCGStab:  Solving for Uz, Initial residual = 0.113728, Final residual = 0.0179904, No Iterations 5
Gingko init_preconditioner : 0 ms
 get_precond == NULL
Gingko solve : 895 ms
 copy back
 get iters 
noneompGKOBiCGStab:  Solving for p, Initial residual = 0.342611, Final residual = 9.26142e-07, No Iterations 337
time step continuity errors : sum local = 1.3065e-08, global = 9.34927e-22, cumulative = -3.02826e-20
Gingko init_preconditioner : 0 ms
 get_precond == NULL
Gingko solve : 807 ms
 copy back
 get iters 
noneompGKOBiCGStab:  Solving for p, Initial residual = 0.353949, Final residual = 6.26055e-07, No Iterations 320
time step continuity errors : sum local = 3.29978e-07, global = -5.03417e-23, cumulative = -3.0333e-20
ExecutionTime = 145.91 s  ClockTime = 11 s

End

