/*---------------------------------------------------------------------------*\
  =========                 |
  \\      /  F ield         | OpenFOAM: The Open Source CFD Toolbox
   \\    /   O peration     | Website:  https://openfoam.org
    \\  /    A nd           | Version:  8
     \\/     M anipulation  |
\*---------------------------------------------------------------------------*/
Build  : 8-13d66902f78c
Exec   : icoFoam
Date   : Jun 24 2021
Time   : 11:34:42
Host   : "uc2n428.localdomain"
PID    : 3987465
I/O    : uncollated
Case   : /pfs/data5/home/kit/scc/nq7776/code/OGL_DATA/lidDrivenCavity3D/v0.1-113-g8300f3e/f584ccac99/IntelXeonGold6230CPU@2.10GHz/Test_2021-06-24-11:01:02/50/p-BiCGStab-GKO-none-omp/lidDrivenCavity3D
nProcs : 1
sigFpe : Enabling floating point exception trapping (FOAM_SIGFPE).
fileModificationChecking : Monitoring run-time modified files using timeStampMaster (fileModificationSkew 10)
allowSystemOperations : Allowing user-supplied system call operations

// * * * * * * * * * * * * * * * * * * * * * * * * * * * * * * * * * * * * * //
Create time

Create mesh for time = 0

Reading transportProperties

Reading field p

Reading field U

Reading/calculating face flux field phi


Starting time loop

Time = 0.002

Courant Number mean: 0 max: 0
nonePBiCGStab:  Solving for Ux, Initial residual = 1, Final residual = 0.0592055, No Iterations 5
nonePBiCGStab:  Solving for Uy, Initial residual = 0, Final residual = 0, No Iterations 0
nonePBiCGStab:  Solving for Uz, Initial residual = 0, Final residual = 0, No Iterations 0
Gingko init_host_sparsity_pattern : 35 ms
 matrix not stored update host matrix 
Gingko update_host_mtx : 18 ms
matrix is not yet sorted, compute sorting idxs 
 compute sorting idxs 860000
Gingko compute_sort : 994 ms
matrix is not yet sorted,  sorting host matrix 
Gingko sort_host_mtx_sparsity_pattern : 24 ms
Gingko sort_host_mtx : 15 ms
Gingko init_preconditioner : 0 ms
 get_precond == NULL
Gingko solve : 1051 ms
 copy back
 get iters 
noneompGKOBiCGStab:  Solving for p, Initial residual = 0, Final residual = 5.67034e-07, No Iterations 354
time step continuity errors : sum local = 2.46818e-07, global = -1.86537e-20, cumulative = -1.86537e-20
Gingko init_preconditioner : 0 ms
 get_precond == NULL
Gingko solve : 1048 ms
 copy back
 get iters 
noneompGKOBiCGStab:  Solving for p, Initial residual = 1, Final residual = 7.11727e-07, No Iterations 349
time step continuity errors : sum local = 1.36417e-08, global = -2.98405e-22, cumulative = -1.89522e-20
ExecutionTime = 69.28 s  ClockTime = 4 s

Time = 0.004

Courant Number mean: 0.0636233 max: 0.723792
nonePBiCGStab:  Solving for Ux, Initial residual = 0.144131, Final residual = 0.0219187, No Iterations 5
nonePBiCGStab:  Solving for Uy, Initial residual = 0.363932, Final residual = 0.0523263, No Iterations 5
nonePBiCGStab:  Solving for Uz, Initial residual = 0.97341, Final residual = 0.159464, No Iterations 5
Gingko init_preconditioner : 0 ms
 get_precond == NULL
Gingko solve : 1046 ms
 copy back
 get iters 
noneompGKOBiCGStab:  Solving for p, Initial residual = 0.676723, Final residual = 4.53922e-07, No Iterations 352
time step continuity errors : sum local = 1.82431e-07, global = -7.09694e-21, cumulative = -2.60491e-20
Gingko init_preconditioner : 0 ms
 get_precond == NULL
Gingko solve : 948 ms
 copy back
 get iters 
noneompGKOBiCGStab:  Solving for p, Initial residual = 0.668451, Final residual = 8.56228e-07, No Iterations 330
time step continuity errors : sum local = 3.7272e-06, global = -9.40396e-21, cumulative = -3.54531e-20
ExecutionTime = 133.33 s  ClockTime = 6 s

Time = 0.006

Courant Number mean: 0.0972248 max: 0.862508
nonePBiCGStab:  Solving for Ux, Initial residual = 0.0523943, Final residual = 0.00686533, No Iterations 5
nonePBiCGStab:  Solving for Uy, Initial residual = 0.127214, Final residual = 0.0203295, No Iterations 5
nonePBiCGStab:  Solving for Uz, Initial residual = 0.366115, Final residual = 0.0555203, No Iterations 5
Gingko init_preconditioner : 0 ms
 get_precond == NULL
Gingko solve : 1021 ms
 copy back
 get iters 
noneompGKOBiCGStab:  Solving for p, Initial residual = 0.584583, Final residual = 9.36185e-07, No Iterations 361
time step continuity errors : sum local = 2.92712e-08, global = -2.66873e-20, cumulative = -6.21403e-20
Gingko init_preconditioner : 0 ms
 get_precond == NULL
Gingko solve : 964 ms
 copy back
 get iters 
noneompGKOBiCGStab:  Solving for p, Initial residual = 0.594892, Final residual = 5.41331e-07, No Iterations 345
time step continuity errors : sum local = 1.82669e-07, global = -9.46285e-21, cumulative = -7.16031e-20
ExecutionTime = 197.1 s  ClockTime = 8 s

Time = 0.008

Courant Number mean: 0.113782 max: 0.882461
nonePBiCGStab:  Solving for Ux, Initial residual = 0.0289629, Final residual = 0.00345628, No Iterations 5
nonePBiCGStab:  Solving for Uy, Initial residual = 0.0845056, Final residual = 0.0113283, No Iterations 5
nonePBiCGStab:  Solving for Uz, Initial residual = 0.231673, Final residual = 0.0332918, No Iterations 5
Gingko init_preconditioner : 0 ms
 get_precond == NULL
Gingko solve : 968 ms
 copy back
 get iters 
noneompGKOBiCGStab:  Solving for p, Initial residual = 0.528962, Final residual = 8.72211e-07, No Iterations 346
time step continuity errors : sum local = 1.94621e-08, global = 5.93875e-21, cumulative = -6.56644e-20
Gingko init_preconditioner : 0 ms
 get_precond == NULL
Gingko solve : 975 ms
 copy back
 get iters 
noneompGKOBiCGStab:  Solving for p, Initial residual = 0.411836, Final residual = 9.58435e-07, No Iterations 341
time step continuity errors : sum local = 1.23216e-08, global = -1.91809e-20, cumulative = -8.48453e-20
ExecutionTime = 259.5 s  ClockTime = 10 s

Time = 0.01

Courant Number mean: 0.127307 max: 0.898832
nonePBiCGStab:  Solving for Ux, Initial residual = 0.0202739, Final residual = 0.00214998, No Iterations 5
nonePBiCGStab:  Solving for Uy, Initial residual = 0.050669, Final residual = 0.00646695, No Iterations 5
nonePBiCGStab:  Solving for Uz, Initial residual = 0.113682, Final residual = 0.0177649, No Iterations 5
Gingko init_preconditioner : 0 ms
 get_precond == NULL
Gingko solve : 916 ms
 copy back
 get iters 
noneompGKOBiCGStab:  Solving for p, Initial residual = 0.342769, Final residual = 8.413e-07, No Iterations 334
time step continuity errors : sum local = 1.10751e-08, global = 2.33367e-20, cumulative = -6.15086e-20
Gingko init_preconditioner : 0 ms
 get_precond == NULL
Gingko solve : 897 ms
 copy back
 get iters 
noneompGKOBiCGStab:  Solving for p, Initial residual = 0.355509, Final residual = 9.40322e-07, No Iterations 330
time step continuity errors : sum local = 1.73082e-08, global = 6.0405e-21, cumulative = -5.54681e-20
ExecutionTime = 317.8 s  ClockTime = 12 s

End

