/*---------------------------------------------------------------------------*\
  =========                 |
  \\      /  F ield         | OpenFOAM: The Open Source CFD Toolbox
   \\    /   O peration     | Website:  https://openfoam.org
    \\  /    A nd           | Version:  8
     \\/     M anipulation  |
\*---------------------------------------------------------------------------*/
Build  : 8-13d66902f78c
Exec   : icoFoam
Date   : Jun 26 2021
Time   : 23:35:02
Host   : "uc2n442.localdomain"
PID    : 1059315
I/O    : uncollated
Case   : /pfs/data5/home/kit/scc/nq7776/code/OGL_DATA/lidDrivenCavity3D/v0.1-117-g6793da2/f584ccac99/IntelXeonGold6230CPU@2.10GHz/Test_2021-06-26-23:01:02/50/p-BiCGStab-GKO-none-omp/lidDrivenCavity3D
nProcs : 1
sigFpe : Enabling floating point exception trapping (FOAM_SIGFPE).
fileModificationChecking : Monitoring run-time modified files using timeStampMaster (fileModificationSkew 10)
allowSystemOperations : Allowing user-supplied system call operations

// * * * * * * * * * * * * * * * * * * * * * * * * * * * * * * * * * * * * * //
Create time

Create mesh for time = 0

Reading transportProperties

Reading field p

Reading field U

Reading/calculating face flux field phi


Starting time loop

Time = 0.002

Courant Number mean: 0 max: 0
nonePBiCGStab:  Solving for Ux, Initial residual = 1, Final residual = 0.0592055, No Iterations 5
nonePBiCGStab:  Solving for Uy, Initial residual = 0, Final residual = 0, No Iterations 0
nonePBiCGStab:  Solving for Uz, Initial residual = 0, Final residual = 0, No Iterations 0
Gingko init_host_sparsity_pattern : 35 ms
 matrix not stored update host matrix 
Gingko update_host_mtx : 18 ms
matrix is not yet sorted, compute sorting idxs 
 compute sorting idxs 860000
Gingko compute_sort : 991 ms
matrix is not yet sorted,  sorting host matrix 
Gingko sort_host_mtx_sparsity_pattern : 25 ms
Gingko sort_host_mtx : 15 ms
Gingko init_preconditioner : 0 ms
 get_precond == NULL
Gingko solve : 1323 ms
 copy back
 get iters 
noneompGKOBiCGStab:  Solving for p, Initial residual = 0, Final residual = 5.67034e-07, No Iterations 354
time step continuity errors : sum local = 2.47736e-07, global = -1.86587e-20, cumulative = -1.86587e-20
Gingko init_preconditioner : 0 ms
 get_precond == NULL
Gingko solve : 1229 ms
 copy back
 get iters 
noneompGKOBiCGStab:  Solving for p, Initial residual = 1, Final residual = 8.93012e-07, No Iterations 348
time step continuity errors : sum local = 3.68021e-08, global = 1.80796e-20, cumulative = -5.79143e-22
ExecutionTime = 165.66 s  ClockTime = 4 s

Time = 0.004

Courant Number mean: 0.0636233 max: 0.723792
nonePBiCGStab:  Solving for Ux, Initial residual = 0.144131, Final residual = 0.0219188, No Iterations 5
nonePBiCGStab:  Solving for Uy, Initial residual = 0.363932, Final residual = 0.0523399, No Iterations 5
nonePBiCGStab:  Solving for Uz, Initial residual = 0.97346, Final residual = 0.15924, No Iterations 5
Gingko init_preconditioner : 0 ms
 get_precond == NULL
Gingko solve : 1221 ms
 copy back
 get iters 
noneompGKOBiCGStab:  Solving for p, Initial residual = 0.676682, Final residual = 5.5348e-07, No Iterations 349
time step continuity errors : sum local = 1.07187e-07, global = 5.6166e-21, cumulative = 5.03745e-21
Gingko init_preconditioner : 0 ms
 get_precond == NULL
Gingko solve : 1254 ms
 copy back
 get iters 
noneompGKOBiCGStab:  Solving for p, Initial residual = 0.668448, Final residual = 8.22999e-07, No Iterations 355
time step continuity errors : sum local = 1.04407e-07, global = -1.95514e-21, cumulative = 3.08231e-21
ExecutionTime = 324.28 s  ClockTime = 7 s

Time = 0.006

Courant Number mean: 0.0972236 max: 0.862508
nonePBiCGStab:  Solving for Ux, Initial residual = 0.0524112, Final residual = 0.00685447, No Iterations 5
nonePBiCGStab:  Solving for Uy, Initial residual = 0.127075, Final residual = 0.0201378, No Iterations 5
nonePBiCGStab:  Solving for Uz, Initial residual = 0.366337, Final residual = 0.0531552, No Iterations 5
Gingko init_preconditioner : 0 ms
 get_precond == NULL
Gingko solve : 1222 ms
 copy back
 get iters 
noneompGKOBiCGStab:  Solving for p, Initial residual = 0.584602, Final residual = 2.59638e-07, No Iterations 351
time step continuity errors : sum local = 2.26629e-07, global = 1.80323e-20, cumulative = 2.11146e-20
Gingko init_preconditioner : 0 ms
 get_precond == NULL
Gingko solve : 1207 ms
 copy back
 get iters 
noneompGKOBiCGStab:  Solving for p, Initial residual = 0.594515, Final residual = 9.39738e-07, No Iterations 347
time step continuity errors : sum local = 2.72066e-08, global = -1.47179e-20, cumulative = 6.39672e-21
ExecutionTime = 479.92 s  ClockTime = 9 s

Time = 0.008

Courant Number mean: 0.11379 max: 0.882477
nonePBiCGStab:  Solving for Ux, Initial residual = 0.0289562, Final residual = 0.00344462, No Iterations 5
nonePBiCGStab:  Solving for Uy, Initial residual = 0.0844316, Final residual = 0.0108981, No Iterations 5
nonePBiCGStab:  Solving for Uz, Initial residual = 0.229422, Final residual = 0.0307671, No Iterations 5
Gingko init_preconditioner : 0 ms
 get_precond == NULL
Gingko solve : 1217 ms
 copy back
 get iters 
noneompGKOBiCGStab:  Solving for p, Initial residual = 0.528709, Final residual = 9.67052e-07, No Iterations 350
time step continuity errors : sum local = 1.98578e-05, global = -2.68297e-20, cumulative = -2.0433e-20
Gingko init_preconditioner : 0 ms
 get_precond == NULL
Gingko solve : 1141 ms
 copy back
 get iters 
noneompGKOBiCGStab:  Solving for p, Initial residual = 0.411371, Final residual = 7.48112e-07, No Iterations 328
time step continuity errors : sum local = 4.39281e-07, global = -2.4292e-20, cumulative = -4.4725e-20
ExecutionTime = 631.09 s  ClockTime = 12 s

Time = 0.01

Courant Number mean: 0.127337 max: 0.898877
nonePBiCGStab:  Solving for Ux, Initial residual = 0.0203274, Final residual = 0.00278567, No Iterations 5
nonePBiCGStab:  Solving for Uy, Initial residual = 0.051138, Final residual = 0.00890302, No Iterations 5
nonePBiCGStab:  Solving for Uz, Initial residual = 0.131303, Final residual = 0.0269288, No Iterations 5
Gingko init_preconditioner : 0 ms
 get_precond == NULL
Gingko solve : 1254 ms
 copy back
 get iters 
noneompGKOBiCGStab:  Solving for p, Initial residual = 0.349656, Final residual = 9.94001e-07, No Iterations 357
time step continuity errors : sum local = 1.95669e-09, global = -6.5286e-21, cumulative = -5.12536e-20
Gingko init_preconditioner : 0 ms
 get_precond == NULL
Gingko solve : 1136 ms
 copy back
 get iters 
noneompGKOBiCGStab:  Solving for p, Initial residual = 0.378998, Final residual = 3.27988e-07, No Iterations 332
time step continuity errors : sum local = 5.41777e-10, global = 5.72461e-20, cumulative = 5.99247e-21
ExecutionTime = 784.35 s  ClockTime = 14 s

End

