/*---------------------------------------------------------------------------*\
  =========                 |
  \\      /  F ield         | OpenFOAM: The Open Source CFD Toolbox
   \\    /   O peration     | Website:  https://openfoam.org
    \\  /    A nd           | Version:  8
     \\/     M anipulation  |
\*---------------------------------------------------------------------------*/
Build  : 8-13d66902f78c
Exec   : icoFoam
Date   : Jun 26 2021
Time   : 23:34:00
Host   : "uc2n442.localdomain"
PID    : 1059012
I/O    : uncollated
Case   : /pfs/data5/home/kit/scc/nq7776/code/OGL_DATA/lidDrivenCavity3D/v0.1-117-g6793da2/f584ccac99/IntelXeonGold6230CPU@2.10GHz/Test_2021-06-26-23:01:02/50/p-BiCGStab-GKO-none-omp/lidDrivenCavity3D
nProcs : 1
sigFpe : Enabling floating point exception trapping (FOAM_SIGFPE).
fileModificationChecking : Monitoring run-time modified files using timeStampMaster (fileModificationSkew 10)
allowSystemOperations : Allowing user-supplied system call operations

// * * * * * * * * * * * * * * * * * * * * * * * * * * * * * * * * * * * * * //
Create time

Create mesh for time = 0

Reading transportProperties

Reading field p

Reading field U

Reading/calculating face flux field phi


Starting time loop

Time = 0.002

Courant Number mean: 0 max: 0
nonePBiCGStab:  Solving for Ux, Initial residual = 1, Final residual = 0.0592055, No Iterations 5
nonePBiCGStab:  Solving for Uy, Initial residual = 0, Final residual = 0, No Iterations 0
nonePBiCGStab:  Solving for Uz, Initial residual = 0, Final residual = 0, No Iterations 0
Gingko init_host_sparsity_pattern : 35 ms
 matrix not stored update host matrix 
Gingko update_host_mtx : 18 ms
matrix is not yet sorted, compute sorting idxs 
 compute sorting idxs 860000
Gingko compute_sort : 991 ms
matrix is not yet sorted,  sorting host matrix 
Gingko sort_host_mtx_sparsity_pattern : 24 ms
Gingko sort_host_mtx : 15 ms
Gingko init_preconditioner : 0 ms
 get_precond == NULL
Gingko solve : 1194 ms
 copy back
 get iters 
noneompGKOBiCGStab:  Solving for p, Initial residual = 0, Final residual = 5.67034e-07, No Iterations 354
time step continuity errors : sum local = 2.46652e-07, global = -1.86769e-20, cumulative = -1.86769e-20
Gingko init_preconditioner : 0 ms
 get_precond == NULL
Gingko solve : 1015 ms
 copy back
 get iters 
noneompGKOBiCGStab:  Solving for p, Initial residual = 1, Final residual = 3.62468e-07, No Iterations 343
time step continuity errors : sum local = 2.6109e-07, global = -2.26132e-20, cumulative = -4.12901e-20
ExecutionTime = 72.76 s  ClockTime = 4 s

Time = 0.004

Courant Number mean: 0.0636234 max: 0.723792
nonePBiCGStab:  Solving for Ux, Initial residual = 0.144133, Final residual = 0.0219205, No Iterations 5
nonePBiCGStab:  Solving for Uy, Initial residual = 0.363933, Final residual = 0.052459, No Iterations 5
nonePBiCGStab:  Solving for Uz, Initial residual = 0.972989, Final residual = 0.160143, No Iterations 5
Gingko init_preconditioner : 0 ms
 get_precond == NULL
Gingko solve : 992 ms
 copy back
 get iters 
noneompGKOBiCGStab:  Solving for p, Initial residual = 0.676723, Final residual = 9.83485e-07, No Iterations 348
time step continuity errors : sum local = 4.5266e-09, global = 1.22643e-20, cumulative = -2.90258e-20
Gingko init_preconditioner : 0 ms
 get_precond == NULL
Gingko solve : 1014 ms
 copy back
 get iters 
noneompGKOBiCGStab:  Solving for p, Initial residual = 0.668457, Final residual = 7.21145e-07, No Iterations 354
time step continuity errors : sum local = 3.76375e-08, global = -4.96616e-20, cumulative = -7.86874e-20
ExecutionTime = 137.19 s  ClockTime = 6 s

Time = 0.006

Courant Number mean: 0.0972234 max: 0.862507
nonePBiCGStab:  Solving for Ux, Initial residual = 0.0524135, Final residual = 0.00685589, No Iterations 5
nonePBiCGStab:  Solving for Uy, Initial residual = 0.127124, Final residual = 0.0201776, No Iterations 5
nonePBiCGStab:  Solving for Uz, Initial residual = 0.366619, Final residual = 0.053554, No Iterations 5
Gingko init_preconditioner : 0 ms
 get_precond == NULL
Gingko solve : 982 ms
 copy back
 get iters 
noneompGKOBiCGStab:  Solving for p, Initial residual = 0.584583, Final residual = 9.91932e-07, No Iterations 347
time step continuity errors : sum local = 4.56898e-08, global = 3.7729e-20, cumulative = -4.09583e-20
Gingko init_preconditioner : 0 ms
 get_precond == NULL
Gingko solve : 987 ms
 copy back
 get iters 
noneompGKOBiCGStab:  Solving for p, Initial residual = 0.594525, Final residual = 7.47567e-07, No Iterations 343
time step continuity errors : sum local = 7.64787e-08, global = 1.14002e-20, cumulative = -2.95582e-20
ExecutionTime = 200.48 s  ClockTime = 9 s

Time = 0.008

Courant Number mean: 0.11379 max: 0.882478
nonePBiCGStab:  Solving for Ux, Initial residual = 0.0289551, Final residual = 0.00344511, No Iterations 5
nonePBiCGStab:  Solving for Uy, Initial residual = 0.0844446, Final residual = 0.0108988, No Iterations 5
nonePBiCGStab:  Solving for Uz, Initial residual = 0.23004, Final residual = 0.0307447, No Iterations 5
Gingko init_preconditioner : 0 ms
 get_precond == NULL
Gingko solve : 1020 ms
 copy back
 get iters 
noneompGKOBiCGStab:  Solving for p, Initial residual = 0.528687, Final residual = 8.97549e-07, No Iterations 370
time step continuity errors : sum local = 2.02358e-08, global = -1.0047e-20, cumulative = -3.96052e-20
Gingko init_preconditioner : 0 ms
 get_precond == NULL
Gingko solve : 986 ms
 copy back
 get iters 
noneompGKOBiCGStab:  Solving for p, Initial residual = 0.411371, Final residual = 6.55087e-07, No Iterations 354
time step continuity errors : sum local = 1.06129e-07, global = 3.01829e-20, cumulative = -9.42229e-21
ExecutionTime = 264.93 s  ClockTime = 11 s

Time = 0.01

Courant Number mean: 0.127337 max: 0.898877
nonePBiCGStab:  Solving for Ux, Initial residual = 0.0202795, Final residual = 0.00208628, No Iterations 5
nonePBiCGStab:  Solving for Uy, Initial residual = 0.0505494, Final residual = 0.00624206, No Iterations 5
nonePBiCGStab:  Solving for Uz, Initial residual = 0.113406, Final residual = 0.0183817, No Iterations 5
Gingko init_preconditioner : 0 ms
 get_precond == NULL
Gingko solve : 978 ms
 copy back
 get iters 
noneompGKOBiCGStab:  Solving for p, Initial residual = 0.342603, Final residual = 9.4678e-07, No Iterations 349
time step continuity errors : sum local = 3.47127e-09, global = 3.62937e-20, cumulative = 2.68714e-20
Gingko init_preconditioner : 0 ms
 get_precond == NULL
Gingko solve : 924 ms
 copy back
 get iters 
noneompGKOBiCGStab:  Solving for p, Initial residual = 0.354067, Final residual = 9.67512e-07, No Iterations 322
time step continuity errors : sum local = 2.15178e-07, global = 4.53457e-20, cumulative = 7.22171e-20
ExecutionTime = 326.04 s  ClockTime = 13 s

End

