/*---------------------------------------------------------------------------*\
  =========                 |
  \\      /  F ield         | OpenFOAM: The Open Source CFD Toolbox
   \\    /   O peration     | Website:  https://openfoam.org
    \\  /    A nd           | Version:  8
     \\/     M anipulation  |
\*---------------------------------------------------------------------------*/
Build  : 8-13d66902f78c
Exec   : icoFoam
Date   : Jun 24 2021
Time   : 16:11:22
Host   : "uc2n478.localdomain"
PID    : 2833107
I/O    : uncollated
Case   : /pfs/data5/home/kit/scc/nq7776/code/OGL_DATA/lidDrivenCavity3D/v0.1-113-g8300f3e/f584ccac99/IntelXeonGold6230CPU@2.10GHz/Test_2021-06-24-15:31:59/50/p-BiCGStab-GKO-BJ-omp/lidDrivenCavity3D
nProcs : 1
sigFpe : Enabling floating point exception trapping (FOAM_SIGFPE).
fileModificationChecking : Monitoring run-time modified files using timeStampMaster (fileModificationSkew 10)
allowSystemOperations : Allowing user-supplied system call operations

// * * * * * * * * * * * * * * * * * * * * * * * * * * * * * * * * * * * * * //
Create time

Create mesh for time = 0

Reading transportProperties

Reading field p

Reading field U

Reading/calculating face flux field phi


Starting time loop

Time = 0.002

Courant Number mean: 0 max: 0
nonePBiCGStab:  Solving for Ux, Initial residual = 1, Final residual = 0.0592055, No Iterations 5
nonePBiCGStab:  Solving for Uy, Initial residual = 0, Final residual = 0, No Iterations 0
nonePBiCGStab:  Solving for Uz, Initial residual = 0, Final residual = 0, No Iterations 0
Gingko init_host_sparsity_pattern : 37 ms
 matrix not stored update host matrix 
Gingko update_host_mtx : 18 ms
matrix is not yet sorted, compute sorting idxs 
 compute sorting idxs 860000
Gingko compute_sort : 1008 ms
matrix is not yet sorted,  sorting host matrix 
Gingko sort_host_mtx_sparsity_pattern : 24 ms
Gingko sort_host_mtx : 15 ms
Gingko init_preconditioner : 6 ms
Gingko solve : 1408 ms
 copy back
 get iters 
BJompGKOBiCGStab:  Solving for p, Initial residual = 0, Final residual = 9.53558e-07, No Iterations 281
time step continuity errors : sum local = 2.92948e-09, global = -7.52993e-21, cumulative = -7.52993e-21
 found preconditioner 
Gingko init_preconditioner : 0 ms
Gingko solve : 1317 ms
 copy back
 get iters 
BJompGKOBiCGStab:  Solving for p, Initial residual = 1, Final residual = 9.28234e-07, No Iterations 269
time step continuity errors : sum local = 1.89352e-08, global = 2.10248e-20, cumulative = 1.34949e-20
ExecutionTime = 23.61 s  ClockTime = 5 s

Time = 0.004

Courant Number mean: 0.0636233 max: 0.723792
nonePBiCGStab:  Solving for Ux, Initial residual = 0.144135, Final residual = 0.02192, No Iterations 5
nonePBiCGStab:  Solving for Uy, Initial residual = 0.363931, Final residual = 0.0522821, No Iterations 5
nonePBiCGStab:  Solving for Uz, Initial residual = 0.973596, Final residual = 0.158925, No Iterations 5
 found preconditioner 
Gingko init_preconditioner : 0 ms
Gingko solve : 1377 ms
 copy back
 get iters 
BJompGKOBiCGStab:  Solving for p, Initial residual = 0.676727, Final residual = 9.78559e-07, No Iterations 277
time step continuity errors : sum local = 1.09922e-08, global = -3.7843e-20, cumulative = -2.43481e-20
 found preconditioner 
Gingko init_preconditioner : 0 ms
Gingko solve : 1243 ms
 copy back
 get iters 
BJompGKOBiCGStab:  Solving for p, Initial residual = 0.668514, Final residual = 7.67916e-07, No Iterations 255
time step continuity errors : sum local = 1.32468e-08, global = -3.13179e-20, cumulative = -5.56661e-20
ExecutionTime = 44.7 s  ClockTime = 8 s

Time = 0.006

Courant Number mean: 0.0972275 max: 0.862514
nonePBiCGStab:  Solving for Ux, Initial residual = 0.0524163, Final residual = 0.00685501, No Iterations 5
nonePBiCGStab:  Solving for Uy, Initial residual = 0.127054, Final residual = 0.0201192, No Iterations 5
nonePBiCGStab:  Solving for Uz, Initial residual = 0.366605, Final residual = 0.053061, No Iterations 5
 found preconditioner 
Gingko init_preconditioner : 0 ms
Gingko solve : 1252 ms
 copy back
 get iters 
BJompGKOBiCGStab:  Solving for p, Initial residual = 0.584666, Final residual = 9.65007e-07, No Iterations 257
time step continuity errors : sum local = 1.03367e-08, global = -3.79981e-21, cumulative = -5.94659e-20
 found preconditioner 
Gingko init_preconditioner : 0 ms
Gingko solve : 1261 ms
 copy back
 get iters 
BJompGKOBiCGStab:  Solving for p, Initial residual = 0.594544, Final residual = 8.53937e-07, No Iterations 257
time step continuity errors : sum local = 1.08574e-08, global = 1.34947e-20, cumulative = -4.59712e-20
ExecutionTime = 64.95 s  ClockTime = 10 s

Time = 0.008

Courant Number mean: 0.113794 max: 0.88248
nonePBiCGStab:  Solving for Ux, Initial residual = 0.0289592, Final residual = 0.00344514, No Iterations 5
nonePBiCGStab:  Solving for Uy, Initial residual = 0.0844211, Final residual = 0.0109194, No Iterations 5
nonePBiCGStab:  Solving for Uz, Initial residual = 0.229196, Final residual = 0.0297889, No Iterations 5
 found preconditioner 
Gingko init_preconditioner : 0 ms
Gingko solve : 1234 ms
 copy back
 get iters 
BJompGKOBiCGStab:  Solving for p, Initial residual = 0.5287, Final residual = 5.68032e-07, No Iterations 254
time step continuity errors : sum local = 4.57987e-09, global = -4.79106e-20, cumulative = -9.38818e-20
 found preconditioner 
Gingko init_preconditioner : 0 ms
Gingko solve : 1199 ms
 copy back
 get iters 
BJompGKOBiCGStab:  Solving for p, Initial residual = 0.411429, Final residual = 9.35849e-07, No Iterations 246
time step continuity errors : sum local = 4.22497e-08, global = 5.35092e-20, cumulative = -4.03726e-20
ExecutionTime = 84.56 s  ClockTime = 13 s

Time = 0.01

Courant Number mean: 0.127339 max: 0.898877
nonePBiCGStab:  Solving for Ux, Initial residual = 0.0202789, Final residual = 0.002085, No Iterations 5
nonePBiCGStab:  Solving for Uy, Initial residual = 0.0505593, Final residual = 0.00623633, No Iterations 5
nonePBiCGStab:  Solving for Uz, Initial residual = 0.112911, Final residual = 0.0180819, No Iterations 5
 found preconditioner 
Gingko init_preconditioner : 0 ms
Gingko solve : 1153 ms
 copy back
 get iters 
BJompGKOBiCGStab:  Solving for p, Initial residual = 0.342691, Final residual = 9.96946e-07, No Iterations 237
time step continuity errors : sum local = 3.06928e-09, global = 1.20385e-20, cumulative = -2.83341e-20
 found preconditioner 
Gingko init_preconditioner : 0 ms
Gingko solve : 1246 ms
 copy back
 get iters 
BJompGKOBiCGStab:  Solving for p, Initial residual = 0.354048, Final residual = 6.53947e-07, No Iterations 256
time step continuity errors : sum local = 8.11975e-09, global = 2.20878e-21, cumulative = -2.61253e-20
ExecutionTime = 103.88 s  ClockTime = 15 s

End

