/*---------------------------------------------------------------------------*\
  =========                 |
  \\      /  F ield         | OpenFOAM: The Open Source CFD Toolbox
   \\    /   O peration     | Website:  https://openfoam.org
    \\  /    A nd           | Version:  8
     \\/     M anipulation  |
\*---------------------------------------------------------------------------*/
Build  : 8-13d66902f78c
Exec   : icoFoam
Date   : Jun 29 2021
Time   : 10:08:09
Host   : "uc2n446.localdomain"
PID    : 4160978
I/O    : uncollated
Case   : /pfs/data5/home/kit/scc/nq7776/code/OGL_DATA/lidDrivenCavity3D/v0.1-119-gd926e8b/f584ccac99/IntelXeonGold6230CPU@2.10GHz/Test_2021-06-29-10:06:48/50/p-BiCGStab-OF-DIC-reference/lidDrivenCavity3D
nProcs : 1
sigFpe : Enabling floating point exception trapping (FOAM_SIGFPE).
fileModificationChecking : Monitoring run-time modified files using timeStampMaster (fileModificationSkew 10)
allowSystemOperations : Allowing user-supplied system call operations

// * * * * * * * * * * * * * * * * * * * * * * * * * * * * * * * * * * * * * //
Create time

Create mesh for time = 0

Reading transportProperties

Reading field p

Reading field U

Reading/calculating face flux field phi


Starting time loop

Time = 0.002

Courant Number mean: 0 max: 0
nonePBiCGStab:  Solving for Ux, Initial residual = 1, Final residual = 0.0592055, No Iterations 5
nonePBiCGStab:  Solving for Uy, Initial residual = 0, Final residual = 0, No Iterations 0
nonePBiCGStab:  Solving for Uz, Initial residual = 0, Final residual = 0, No Iterations 0
DICPBiCGStab:  Solving for p, Initial residual = 1, Final residual = 2.31254e-07, No Iterations 107
time step continuity errors : sum local = 3.114e-10, global = -1.41263e-20, cumulative = -1.41263e-20
DICPBiCGStab:  Solving for p, Initial residual = 0.67673, Final residual = 9.69896e-07, No Iterations 95
time step continuity errors : sum local = 2.70358e-09, global = -1.81842e-20, cumulative = -3.23105e-20
ExecutionTime = 1.6 s  ClockTime = 2 s

Time = 0.004

Courant Number mean: 0.0636233 max: 0.723792
nonePBiCGStab:  Solving for Ux, Initial residual = 0.144136, Final residual = 0.0219206, No Iterations 5
nonePBiCGStab:  Solving for Uy, Initial residual = 0.363931, Final residual = 0.0522818, No Iterations 5
nonePBiCGStab:  Solving for Uz, Initial residual = 0.973659, Final residual = 0.158939, No Iterations 5
DICPBiCGStab:  Solving for p, Initial residual = 0.668509, Final residual = 6.72806e-07, No Iterations 105
time step continuity errors : sum local = 3.06598e-09, global = -4.72349e-20, cumulative = -7.95455e-20
DICPBiCGStab:  Solving for p, Initial residual = 0.58466, Final residual = 7.82971e-07, No Iterations 97
time step continuity errors : sum local = 3.66304e-09, global = 5.494e-20, cumulative = -2.46054e-20
ExecutionTime = 2.74 s  ClockTime = 3 s

Time = 0.006

Courant Number mean: 0.0972275 max: 0.862515
nonePBiCGStab:  Solving for Ux, Initial residual = 0.0524191, Final residual = 0.00685546, No Iterations 5
nonePBiCGStab:  Solving for Uy, Initial residual = 0.127045, Final residual = 0.0201177, No Iterations 5
nonePBiCGStab:  Solving for Uz, Initial residual = 0.3668, Final residual = 0.0530888, No Iterations 5
DICPBiCGStab:  Solving for p, Initial residual = 0.59454, Final residual = 7.62008e-07, No Iterations 106
time step continuity errors : sum local = 1.45774e-09, global = -2.64243e-20, cumulative = -5.10297e-20
DICPBiCGStab:  Solving for p, Initial residual = 0.528698, Final residual = 8.10506e-07, No Iterations 101
time step continuity errors : sum local = 1.34519e-09, global = 1.24332e-20, cumulative = -3.85965e-20
ExecutionTime = 3.93 s  ClockTime = 4 s

Time = 0.008

Courant Number mean: 0.113794 max: 0.88248
nonePBiCGStab:  Solving for Ux, Initial residual = 0.0289576, Final residual = 0.00344464, No Iterations 5
nonePBiCGStab:  Solving for Uy, Initial residual = 0.0844249, Final residual = 0.0109194, No Iterations 5
nonePBiCGStab:  Solving for Uz, Initial residual = 0.229205, Final residual = 0.0297688, No Iterations 5
DICPBiCGStab:  Solving for p, Initial residual = 0.411432, Final residual = 1.15255e-07, No Iterations 102
time step continuity errors : sum local = 2.29683e-10, global = 1.06598e-21, cumulative = -3.75305e-20
DICPBiCGStab:  Solving for p, Initial residual = 0.342685, Final residual = 5.09633e-07, No Iterations 103
time step continuity errors : sum local = 1.03719e-09, global = -1.32481e-20, cumulative = -5.07786e-20
ExecutionTime = 5.09 s  ClockTime = 5 s

Time = 0.01

Courant Number mean: 0.127339 max: 0.898877
nonePBiCGStab:  Solving for Ux, Initial residual = 0.0202765, Final residual = 0.0020848, No Iterations 5
nonePBiCGStab:  Solving for Uy, Initial residual = 0.0505566, Final residual = 0.00623585, No Iterations 5
nonePBiCGStab:  Solving for Uz, Initial residual = 0.112946, Final residual = 0.0180725, No Iterations 5
DICPBiCGStab:  Solving for p, Initial residual = 0.354043, Final residual = 4.6848e-07, No Iterations 103
time step continuity errors : sum local = 1.17105e-09, global = -3.60354e-21, cumulative = -5.43822e-20
DICPBiCGStab:  Solving for p, Initial residual = 0.302209, Final residual = 4.5453e-07, No Iterations 100
time step continuity errors : sum local = 9.54322e-10, global = 1.15396e-20, cumulative = -4.28426e-20
ExecutionTime = 6.24 s  ClockTime = 6 s

End

