/*---------------------------------------------------------------------------*\
  =========                 |
  \\      /  F ield         | OpenFOAM: The Open Source CFD Toolbox
   \\    /   O peration     | Website:  https://openfoam.org
    \\  /    A nd           | Version:  8
     \\/     M anipulation  |
\*---------------------------------------------------------------------------*/
Build  : 8-13d66902f78c
Exec   : icoFoam
Date   : Jun 27 2021
Time   : 23:24:56
Host   : "uc2n484.localdomain"
PID    : 1249909
I/O    : uncollated
Case   : /pfs/data5/home/kit/scc/nq7776/code/OGL_DATA/lidDrivenCavity3D/v0.1-118-gbd9d99d/f584ccac99/TeslaV100-SXM2-32GB/Test_2021-06-27-23:21:45/50/p-U-BiCGStab-GKO-BJ-cuda/lidDrivenCavity3D
nProcs : 1
sigFpe : Enabling floating point exception trapping (FOAM_SIGFPE).
fileModificationChecking : Monitoring run-time modified files using timeStampMaster (fileModificationSkew 10)
allowSystemOperations : Allowing user-supplied system call operations

// * * * * * * * * * * * * * * * * * * * * * * * * * * * * * * * * * * * * * //
Create time

Create mesh for time = 0

Reading transportProperties

Reading field p

Reading field U

Reading/calculating face flux field phi


Starting time loop

Time = 0.002

Courant Number mean: 0 max: 0
Gingko init_host_sparsity_pattern : 33 ms
 matrix not stored update host matrix 
Gingko update_host_mtx : 18 ms
matrix is not yet sorted, compute sorting idxs 
 compute sorting idxs 860000
Gingko compute_sort : 1003 ms
matrix is not yet sorted,  sorting host matrix 
Gingko sort_host_mtx_sparsity_pattern : 23 ms
Gingko sort_host_mtx : 12 ms
Gingko init_preconditioner : 14 ms
Gingko solve : 14 ms
 copy back
 get iters 
BJcudaGKOBiCGStab:  Solving for Ux, Initial residual = 0, Final residual = 8.40984e-07, No Iterations 31
Gingko init_host_sparsity_pattern : 32 ms
 matrix not stored update host matrix 
Gingko update_host_mtx : 15 ms
matrix is not yet sorted,  sorting host matrix 
Gingko sort_host_mtx_sparsity_pattern : 23 ms
Gingko sort_host_mtx : 12 ms
Gingko init_preconditioner : 13 ms
Gingko solve : 4 ms
 copy back
 get iters 
BJcudaGKOBiCGStab:  Solving for Uy, Initial residual = 1, Final residual = 0, No Iterations 0
Gingko init_host_sparsity_pattern : 34 ms
 matrix not stored update host matrix 
Gingko update_host_mtx : 17 ms
matrix is not yet sorted,  sorting host matrix 
Gingko sort_host_mtx_sparsity_pattern : 23 ms
Gingko sort_host_mtx : 12 ms
Gingko init_preconditioner : 13 ms
Gingko solve : 3 ms
 copy back
 get iters 
BJcudaGKOBiCGStab:  Solving for Uz, Initial residual = 0, Final residual = 0, No Iterations 0
Gingko init_host_sparsity_pattern : 33 ms
 matrix not stored update host matrix 
Gingko update_host_mtx : 17 ms
matrix is not yet sorted,  sorting host matrix 
Gingko sort_host_mtx_sparsity_pattern : 23 ms
Gingko sort_host_mtx : 12 ms
Gingko init_preconditioner : 13 ms
Gingko solve : 114 ms
 copy back
 get iters 
BJcudaGKOBiCGStab:  Solving for p, Initial residual = 0, Final residual = 7.00545e-07, No Iterations 306
time step continuity errors : sum local = 1.60502e-09, global = 1.44342e-20, cumulative = 1.44342e-20
 found preconditioner 
Gingko init_preconditioner : 0 ms
Gingko solve : 104 ms
 copy back
 get iters 
BJcudaGKOBiCGStab:  Solving for p, Initial residual = 1, Final residual = 8.24632e-07, No Iterations 273
time step continuity errors : sum local = 3.6003e-09, global = 1.35363e-21, cumulative = 1.57879e-20
ExecutionTime = 2.99 s  ClockTime = 3 s

Time = 0.004

Courant Number mean: 0.0720722 max: 0.726639
Gingko init_host_sparsity_pattern : 35 ms
 matrix not stored update host matrix 
Gingko update_host_mtx : 17 ms
matrix is not yet sorted,  sorting host matrix 
Gingko sort_host_mtx_sparsity_pattern : 23 ms
Gingko sort_host_mtx : 13 ms
 found preconditioner 
Gingko init_preconditioner : 0 ms
Gingko solve : 10 ms
 copy back
 get iters 
BJcudaGKOBiCGStab:  Solving for Ux, Initial residual = 0.721583, Final residual = 5.5707e-07, No Iterations 23
Gingko init_host_sparsity_pattern : 32 ms
 matrix not stored update host matrix 
Gingko update_host_mtx : 16 ms
matrix is not yet sorted,  sorting host matrix 
Gingko sort_host_mtx_sparsity_pattern : 21 ms
Gingko sort_host_mtx : 12 ms
 found preconditioner 
Gingko init_preconditioner : 0 ms
Gingko solve : 13 ms
 copy back
 get iters 
BJcudaGKOBiCGStab:  Solving for Uy, Initial residual = 0.203464, Final residual = 9.29086e-07, No Iterations 32
Gingko init_host_sparsity_pattern : 32 ms
 matrix not stored update host matrix 
Gingko update_host_mtx : 16 ms
matrix is not yet sorted,  sorting host matrix 
Gingko sort_host_mtx_sparsity_pattern : 21 ms
Gingko sort_host_mtx : 12 ms
 found preconditioner 
Gingko init_preconditioner : 0 ms
Gingko solve : 13 ms
 copy back
 get iters 
BJcudaGKOBiCGStab:  Solving for Uz, Initial residual = 0.618432, Final residual = 9.88598e-07, No Iterations 31
 found preconditioner 
Gingko init_preconditioner : 0 ms
Gingko solve : 107 ms
 copy back
 get iters 
BJcudaGKOBiCGStab:  Solving for p, Initial residual = 0.536218, Final residual = 8.72164e-07, No Iterations 282
time step continuity errors : sum local = 3.48358e-09, global = -1.49062e-20, cumulative = 8.81658e-22
 found preconditioner 
Gingko init_preconditioner : 0 ms
Gingko solve : 98 ms
 copy back
 get iters 
BJcudaGKOBiCGStab:  Solving for p, Initial residual = 0.67332, Final residual = 8.27844e-07, No Iterations 263
time step continuity errors : sum local = 3.70676e-09, global = -2.13219e-20, cumulative = -2.04402e-20
ExecutionTime = 3.6 s  ClockTime = 4 s

Time = 0.006

Courant Number mean: 0.107408 max: 0.881754
Gingko init_host_sparsity_pattern : 32 ms
 matrix not stored update host matrix 
Gingko update_host_mtx : 16 ms
matrix is not yet sorted,  sorting host matrix 
Gingko sort_host_mtx_sparsity_pattern : 21 ms
Gingko sort_host_mtx : 12 ms
 found preconditioner 
Gingko init_preconditioner : 0 ms
Gingko solve : 10 ms
 copy back
 get iters 
BJcudaGKOBiCGStab:  Solving for Ux, Initial residual = 0.598889, Final residual = 7.01387e-07, No Iterations 21
Gingko init_host_sparsity_pattern : 32 ms
 matrix not stored update host matrix 
Gingko update_host_mtx : 15 ms
matrix is not yet sorted,  sorting host matrix 
Gingko sort_host_mtx_sparsity_pattern : 21 ms
Gingko sort_host_mtx : 12 ms
 found preconditioner 
Gingko init_preconditioner : 0 ms
Gingko solve : 12 ms
 copy back
 get iters 
BJcudaGKOBiCGStab:  Solving for Uy, Initial residual = 0.0995632, Final residual = 8.20408e-07, No Iterations 29
Gingko init_host_sparsity_pattern : 32 ms
 matrix not stored update host matrix 
Gingko update_host_mtx : 15 ms
matrix is not yet sorted,  sorting host matrix 
Gingko sort_host_mtx_sparsity_pattern : 21 ms
Gingko sort_host_mtx : 12 ms
 found preconditioner 
Gingko init_preconditioner : 0 ms
Gingko solve : 13 ms
 copy back
 get iters 
BJcudaGKOBiCGStab:  Solving for Uz, Initial residual = 0.249985, Final residual = 8.84487e-07, No Iterations 32
 found preconditioner 
Gingko init_preconditioner : 0 ms
Gingko solve : 103 ms
 copy back
 get iters 
BJcudaGKOBiCGStab:  Solving for p, Initial residual = 0.540859, Final residual = 7.10001e-07, No Iterations 272
time step continuity errors : sum local = 1.4913e-09, global = -6.47765e-20, cumulative = -8.52168e-20
 found preconditioner 
Gingko init_preconditioner : 0 ms
Gingko solve : 99 ms
 copy back
 get iters 
BJcudaGKOBiCGStab:  Solving for p, Initial residual = 0.606891, Final residual = 9.81102e-07, No Iterations 266
time step continuity errors : sum local = 1.87127e-09, global = 2.52763e-20, cumulative = -5.99404e-20
ExecutionTime = 4.19 s  ClockTime = 4 s

Time = 0.008

Courant Number mean: 0.123244 max: 0.890103
Gingko init_host_sparsity_pattern : 33 ms
 matrix not stored update host matrix 
Gingko update_host_mtx : 17 ms
matrix is not yet sorted,  sorting host matrix 
Gingko sort_host_mtx_sparsity_pattern : 23 ms
Gingko sort_host_mtx : 12 ms
 found preconditioner 
Gingko init_preconditioner : 0 ms
Gingko solve : 11 ms
 copy back
 get iters 
BJcudaGKOBiCGStab:  Solving for Ux, Initial residual = 0.560865, Final residual = 7.68763e-07, No Iterations 25
Gingko init_host_sparsity_pattern : 32 ms
 matrix not stored update host matrix 
Gingko update_host_mtx : 15 ms
matrix is not yet sorted,  sorting host matrix 
Gingko sort_host_mtx_sparsity_pattern : 21 ms
Gingko sort_host_mtx : 12 ms
 found preconditioner 
Gingko init_preconditioner : 0 ms
Gingko solve : 12 ms
 copy back
 get iters 
BJcudaGKOBiCGStab:  Solving for Uy, Initial residual = 0.0341403, Final residual = 8.14485e-07, No Iterations 28
Gingko init_host_sparsity_pattern : 32 ms
 matrix not stored update host matrix 
Gingko update_host_mtx : 16 ms
matrix is not yet sorted,  sorting host matrix 
Gingko sort_host_mtx_sparsity_pattern : 21 ms
Gingko sort_host_mtx : 12 ms
 found preconditioner 
Gingko init_preconditioner : 0 ms
Gingko solve : 13 ms
 copy back
 get iters 
BJcudaGKOBiCGStab:  Solving for Uz, Initial residual = 0.132381, Final residual = 9.27088e-07, No Iterations 31
 found preconditioner 
Gingko init_preconditioner : 0 ms
Gingko solve : 99 ms
 copy back
 get iters 
BJcudaGKOBiCGStab:  Solving for p, Initial residual = 0.471904, Final residual = 6.62762e-07, No Iterations 267
time step continuity errors : sum local = 1.14679e-09, global = -3.47941e-20, cumulative = -9.47346e-20
 found preconditioner 
Gingko init_preconditioner : 0 ms
Gingko solve : 98 ms
 copy back
 get iters 
BJcudaGKOBiCGStab:  Solving for p, Initial residual = 0.423031, Final residual = 4.04401e-07, No Iterations 265
time step continuity errors : sum local = 6.59096e-10, global = -2.52286e-20, cumulative = -1.19963e-19
ExecutionTime = 4.78 s  ClockTime = 5 s

Time = 0.01

Courant Number mean: 0.136096 max: 0.906942
Gingko init_host_sparsity_pattern : 32 ms
 matrix not stored update host matrix 
Gingko update_host_mtx : 15 ms
matrix is not yet sorted,  sorting host matrix 
Gingko sort_host_mtx_sparsity_pattern : 21 ms
Gingko sort_host_mtx : 12 ms
 found preconditioner 
Gingko init_preconditioner : 0 ms
Gingko solve : 11 ms
 copy back
 get iters 
BJcudaGKOBiCGStab:  Solving for Ux, Initial residual = 0.368369, Final residual = 9.88746e-07, No Iterations 24
Gingko init_host_sparsity_pattern : 32 ms
 matrix not stored update host matrix 
Gingko update_host_mtx : 15 ms
matrix is not yet sorted,  sorting host matrix 
Gingko sort_host_mtx_sparsity_pattern : 21 ms
Gingko sort_host_mtx : 12 ms
 found preconditioner 
Gingko init_preconditioner : 0 ms
Gingko solve : 11 ms
 copy back
 get iters 
BJcudaGKOBiCGStab:  Solving for Uy, Initial residual = 0.0230741, Final residual = 9.76128e-07, No Iterations 25
Gingko init_host_sparsity_pattern : 32 ms
 matrix not stored update host matrix 
Gingko update_host_mtx : 16 ms
matrix is not yet sorted,  sorting host matrix 
Gingko sort_host_mtx_sparsity_pattern : 21 ms
Gingko sort_host_mtx : 12 ms
 found preconditioner 
Gingko init_preconditioner : 0 ms
Gingko solve : 12 ms
 copy back
 get iters 
BJcudaGKOBiCGStab:  Solving for Uz, Initial residual = 0.0484082, Final residual = 8.54702e-07, No Iterations 28
 found preconditioner 
Gingko init_preconditioner : 0 ms
Gingko solve : 92 ms
 copy back
 get iters 
BJcudaGKOBiCGStab:  Solving for p, Initial residual = 0.159104, Final residual = 9.64551e-07, No Iterations 248
time step continuity errors : sum local = 1.42125e-09, global = -3.10389e-20, cumulative = -1.51002e-19
 found preconditioner 
Gingko init_preconditioner : 0 ms
Gingko solve : 91 ms
 copy back
 get iters 
BJcudaGKOBiCGStab:  Solving for p, Initial residual = 0.361668, Final residual = 8.68106e-07, No Iterations 246
time step continuity errors : sum local = 1.21639e-09, global = 2.10326e-20, cumulative = -1.29969e-19
ExecutionTime = 5.35 s  ClockTime = 5 s

End

