/*---------------------------------------------------------------------------*\
  =========                 |
  \\      /  F ield         | OpenFOAM: The Open Source CFD Toolbox
   \\    /   O peration     | Website:  https://openfoam.org
    \\  /    A nd           | Version:  8
     \\/     M anipulation  |
\*---------------------------------------------------------------------------*/
Build  : 8-13d66902f78c
Exec   : icoFoam
Date   : Jun 27 2021
Time   : 23:04:51
Host   : "uc2n484.localdomain"
PID    : 1229259
I/O    : uncollated
Case   : /pfs/data5/home/kit/scc/nq7776/code/OGL_DATA/lidDrivenCavity3D/v0.1-118-gbd9d99d/f584ccac99/TeslaV100-SXM2-32GB/Test_2021-06-27-23:02:42/50/p-CG-GKO-none-cuda/lidDrivenCavity3D
nProcs : 1
sigFpe : Enabling floating point exception trapping (FOAM_SIGFPE).
fileModificationChecking : Monitoring run-time modified files using timeStampMaster (fileModificationSkew 10)
allowSystemOperations : Allowing user-supplied system call operations

// * * * * * * * * * * * * * * * * * * * * * * * * * * * * * * * * * * * * * //
Create time

Create mesh for time = 0

Reading transportProperties

Reading field p

Reading field U

Reading/calculating face flux field phi


Starting time loop

Time = 0.002

Courant Number mean: 0 max: 0
nonePBiCGStab:  Solving for Ux, Initial residual = 1, Final residual = 0.0592055, No Iterations 5
nonePBiCGStab:  Solving for Uy, Initial residual = 0, Final residual = 0, No Iterations 0
nonePBiCGStab:  Solving for Uz, Initial residual = 0, Final residual = 0, No Iterations 0
Gingko init_host_sparsity_pattern : 33 ms
 matrix not stored update host matrix 
Gingko update_host_mtx : 18 ms
matrix is not yet sorted, compute sorting idxs 
 compute sorting idxs 860000
Gingko compute_sort : 1006 ms
matrix is not yet sorted,  sorting host matrix 
Gingko sort_host_mtx_sparsity_pattern : 23 ms
Gingko sort_host_mtx : 13 ms
Gingko init_preconditioner : 0 ms
 get_precond == NULL
Gingko solve : 76 ms
 copy back
 get iters 
nonecudaGKOCG:  Solving for p, Initial residual = 4e-08, Final residual = 9.4524e-07, No Iterations 445
time step continuity errors : sum local = 1.21255e-09, global = -2.3067e-20, cumulative = -2.3067e-20
Gingko init_preconditioner : 0 ms
 get_precond == NULL
Gingko solve : 74 ms
 copy back
 get iters 
nonecudaGKOCG:  Solving for p, Initial residual = 1, Final residual = 9.30256e-07, No Iterations 441
time step continuity errors : sum local = 1.68748e-09, global = -1.7766e-21, cumulative = -2.48436e-20
ExecutionTime = 2.65 s  ClockTime = 2 s

Time = 0.004

Courant Number mean: 0.0636233 max: 0.723792
nonePBiCGStab:  Solving for Ux, Initial residual = 0.144136, Final residual = 0.0219208, No Iterations 5
nonePBiCGStab:  Solving for Uy, Initial residual = 0.363931, Final residual = 0.0522819, No Iterations 5
nonePBiCGStab:  Solving for Uz, Initial residual = 0.973677, Final residual = 0.158944, No Iterations 5
Gingko init_preconditioner : 0 ms
 get_precond == NULL
Gingko solve : 72 ms
 copy back
 get iters 
nonecudaGKOCG:  Solving for p, Initial residual = 0.67673, Final residual = 9.77645e-07, No Iterations 426
time step continuity errors : sum local = 2.23859e-09, global = -5.19349e-21, cumulative = -3.00371e-20
Gingko init_preconditioner : 0 ms
 get_precond == NULL
Gingko solve : 71 ms
 copy back
 get iters 
nonecudaGKOCG:  Solving for p, Initial residual = 0.668507, Final residual = 8.56546e-07, No Iterations 425
time step continuity errors : sum local = 2.01104e-09, global = 1.87442e-21, cumulative = -2.81627e-20
ExecutionTime = 2.92 s  ClockTime = 3 s

Time = 0.006

Courant Number mean: 0.0972275 max: 0.862515
nonePBiCGStab:  Solving for Ux, Initial residual = 0.0524189, Final residual = 0.00685535, No Iterations 5
nonePBiCGStab:  Solving for Uy, Initial residual = 0.127046, Final residual = 0.0201182, No Iterations 5
nonePBiCGStab:  Solving for Uz, Initial residual = 0.36675, Final residual = 0.0530696, No Iterations 5
Gingko init_preconditioner : 0 ms
 get_precond == NULL
Gingko solve : 72 ms
 copy back
 get iters 
nonecudaGKOCG:  Solving for p, Initial residual = 0.584655, Final residual = 9.02054e-07, No Iterations 429
time step continuity errors : sum local = 1.43693e-09, global = 2.94897e-20, cumulative = 1.32698e-21
Gingko init_preconditioner : 0 ms
 get_precond == NULL
Gingko solve : 75 ms
 copy back
 get iters 
nonecudaGKOCG:  Solving for p, Initial residual = 0.594544, Final residual = 8.85162e-07, No Iterations 428
time step continuity errors : sum local = 1.36394e-09, global = 1.63748e-20, cumulative = 1.77018e-20
ExecutionTime = 3.21 s  ClockTime = 3 s

Time = 0.008

Courant Number mean: 0.113794 max: 0.88248
nonePBiCGStab:  Solving for Ux, Initial residual = 0.0289573, Final residual = 0.00344464, No Iterations 5
nonePBiCGStab:  Solving for Uy, Initial residual = 0.0844255, Final residual = 0.0109195, No Iterations 5
nonePBiCGStab:  Solving for Uz, Initial residual = 0.229192, Final residual = 0.0297663, No Iterations 5
Gingko init_preconditioner : 0 ms
 get_precond == NULL
Gingko solve : 70 ms
 copy back
 get iters 
nonecudaGKOCG:  Solving for p, Initial residual = 0.528702, Final residual = 9.15192e-07, No Iterations 416
time step continuity errors : sum local = 1.39482e-09, global = -1.46682e-20, cumulative = 3.03365e-21
Gingko init_preconditioner : 0 ms
 get_precond == NULL
Gingko solve : 71 ms
 copy back
 get iters 
nonecudaGKOCG:  Solving for p, Initial residual = 0.411433, Final residual = 9.84719e-07, No Iterations 414
time step continuity errors : sum local = 1.52877e-09, global = -9.04313e-21, cumulative = -6.00948e-21
ExecutionTime = 3.48 s  ClockTime = 3 s

Time = 0.01

Courant Number mean: 0.127339 max: 0.898877
nonePBiCGStab:  Solving for Ux, Initial residual = 0.020277, Final residual = 0.00208485, No Iterations 5
nonePBiCGStab:  Solving for Uy, Initial residual = 0.0505563, Final residual = 0.00623587, No Iterations 5
nonePBiCGStab:  Solving for Uz, Initial residual = 0.112946, Final residual = 0.0180732, No Iterations 5
Gingko init_preconditioner : 0 ms
 get_precond == NULL
Gingko solve : 70 ms
 copy back
 get iters 
nonecudaGKOCG:  Solving for p, Initial residual = 0.342686, Final residual = 9.19209e-07, No Iterations 421
time step continuity errors : sum local = 1.16544e-09, global = -1.48699e-20, cumulative = -2.08794e-20
Gingko init_preconditioner : 0 ms
 get_precond == NULL
Gingko solve : 70 ms
 copy back
 get iters 
nonecudaGKOCG:  Solving for p, Initial residual = 0.354043, Final residual = 9.78865e-07, No Iterations 419
time step continuity errors : sum local = 1.22485e-09, global = 2.69714e-20, cumulative = 6.09195e-21
ExecutionTime = 3.76 s  ClockTime = 3 s

End

