/*---------------------------------------------------------------------------*\
  =========                 |
  \\      /  F ield         | OpenFOAM: The Open Source CFD Toolbox
   \\    /   O peration     | Website:  https://openfoam.org
    \\  /    A nd           | Version:  8
     \\/     M anipulation  |
\*---------------------------------------------------------------------------*/
Build  : 8-13d66902f78c
Exec   : icoFoam
Date   : Jun 27 2021
Time   : 23:31:44
Host   : "uc2n535.localdomain"
PID    : 3692139
I/O    : uncollated
Case   : /pfs/data5/home/kit/scc/nq7776/code/OGL_DATA/lidDrivenCavity3D/v0.1-118-gbd9d99d/f584ccac99/IntelXeonGold6230CPU@2.10GHz/Test_2021-06-27-23:04:47/50/p-U-CG-GKO-BJ-omp/lidDrivenCavity3D
nProcs : 1
sigFpe : Enabling floating point exception trapping (FOAM_SIGFPE).
fileModificationChecking : Monitoring run-time modified files using timeStampMaster (fileModificationSkew 10)
allowSystemOperations : Allowing user-supplied system call operations

// * * * * * * * * * * * * * * * * * * * * * * * * * * * * * * * * * * * * * //
Create time

Create mesh for time = 0

Reading transportProperties

Reading field p

Reading field U

Reading/calculating face flux field phi


Starting time loop

Time = 0.002

Courant Number mean: 0 max: 0
Gingko init_host_sparsity_pattern : 35 ms
 matrix not stored update host matrix 
Gingko update_host_mtx : 18 ms
matrix is not yet sorted, compute sorting idxs 
 compute sorting idxs 860000
Gingko compute_sort : 994 ms
matrix is not yet sorted,  sorting host matrix 
Gingko sort_host_mtx_sparsity_pattern : 24 ms
Gingko sort_host_mtx : 15 ms
Gingko init_preconditioner : 8 ms
Gingko solve : 209 ms
 copy back
 get iters 
BJompGKOBiCGStab:  Solving for Ux, Initial residual = 0, Final residual = 8.40984e-07, No Iterations 31
Gingko init_host_sparsity_pattern : 35 ms
 matrix not stored update host matrix 
Gingko update_host_mtx : 18 ms
matrix is not yet sorted,  sorting host matrix 
Gingko sort_host_mtx_sparsity_pattern : 24 ms
Gingko sort_host_mtx : 12 ms
Gingko init_preconditioner : 2 ms
Gingko solve : 2 ms
 copy back
 get iters 
BJompGKOBiCGStab:  Solving for Uy, Initial residual = 1, Final residual = 0, No Iterations 0
Gingko init_host_sparsity_pattern : 34 ms
 matrix not stored update host matrix 
Gingko update_host_mtx : 15 ms
matrix is not yet sorted,  sorting host matrix 
Gingko sort_host_mtx_sparsity_pattern : 23 ms
Gingko sort_host_mtx : 12 ms
Gingko init_preconditioner : 2 ms
Gingko solve : 2 ms
 copy back
 get iters 
BJompGKOBiCGStab:  Solving for Uz, Initial residual = 0, Final residual = 0, No Iterations 0
Gingko init_host_sparsity_pattern : 32 ms
 matrix not stored update host matrix 
Gingko update_host_mtx : 18 ms
matrix is not yet sorted,  sorting host matrix 
Gingko sort_host_mtx_sparsity_pattern : 22 ms
Gingko sort_host_mtx : 14 ms
Gingko init_preconditioner : 2 ms
 CG create  precond 
Gingko solve : 893 ms
 copy back
 get iters 
BJompGKOCG:  Solving for p, Initial residual = 0, Final residual = 9.57569e-07, No Iterations 404
time step continuity errors : sum local = 1.57675e-09, global = 1.50266e-20, cumulative = 1.50266e-20
 found preconditioner 
Gingko init_preconditioner : 0 ms
 CG create  precond 
Gingko solve : 818 ms
 copy back
 get iters 
BJompGKOCG:  Solving for p, Initial residual = 1, Final residual = 9.47224e-07, No Iterations 385
time step continuity errors : sum local = 2.06792e-09, global = -1.61003e-20, cumulative = -1.07374e-21
ExecutionTime = 128.1 s  ClockTime = 4 s

Time = 0.004

Courant Number mean: 0.0720722 max: 0.726639
Gingko init_host_sparsity_pattern : 32 ms
 matrix not stored update host matrix 
Gingko update_host_mtx : 16 ms
matrix is not yet sorted,  sorting host matrix 
Gingko sort_host_mtx_sparsity_pattern : 23 ms
Gingko sort_host_mtx : 13 ms
 found preconditioner 
Gingko init_preconditioner : 0 ms
Gingko solve : 109 ms
 copy back
 get iters 
BJompGKOBiCGStab:  Solving for Ux, Initial residual = 0.721583, Final residual = 5.55771e-07, No Iterations 23
Gingko init_host_sparsity_pattern : 34 ms
 matrix not stored update host matrix 
Gingko update_host_mtx : 15 ms
matrix is not yet sorted,  sorting host matrix 
Gingko sort_host_mtx_sparsity_pattern : 22 ms
Gingko sort_host_mtx : 12 ms
 found preconditioner 
Gingko init_preconditioner : 0 ms
Gingko solve : 141 ms
 copy back
 get iters 
BJompGKOBiCGStab:  Solving for Uy, Initial residual = 0.203465, Final residual = 9.28242e-07, No Iterations 32
Gingko init_host_sparsity_pattern : 34 ms
 matrix not stored update host matrix 
Gingko update_host_mtx : 16 ms
matrix is not yet sorted,  sorting host matrix 
Gingko sort_host_mtx_sparsity_pattern : 23 ms
Gingko sort_host_mtx : 12 ms
 found preconditioner 
Gingko init_preconditioner : 0 ms
Gingko solve : 138 ms
 copy back
 get iters 
BJompGKOBiCGStab:  Solving for Uz, Initial residual = 0.618431, Final residual = 9.89577e-07, No Iterations 31
 found preconditioner 
Gingko init_preconditioner : 0 ms
 CG create  precond 
Gingko solve : 799 ms
 copy back
 get iters 
BJompGKOCG:  Solving for p, Initial residual = 0.536268, Final residual = 9.36062e-07, No Iterations 377
time step continuity errors : sum local = 2.21985e-09, global = -4.67236e-20, cumulative = -4.77973e-20
 found preconditioner 
Gingko init_preconditioner : 0 ms
 CG create  precond 
Gingko solve : 803 ms
 copy back
 get iters 
BJompGKOCG:  Solving for p, Initial residual = 0.673319, Final residual = 9.48279e-07, No Iterations 376
time step continuity errors : sum local = 2.30809e-09, global = -1.16365e-20, cumulative = -5.94338e-20
ExecutionTime = 257.85 s  ClockTime = 6 s

Time = 0.006

Courant Number mean: 0.107408 max: 0.881754
Gingko init_host_sparsity_pattern : 33 ms
 matrix not stored update host matrix 
Gingko update_host_mtx : 17 ms
matrix is not yet sorted,  sorting host matrix 
Gingko sort_host_mtx_sparsity_pattern : 23 ms
Gingko sort_host_mtx : 13 ms
 found preconditioner 
Gingko init_preconditioner : 0 ms
Gingko solve : 94 ms
 copy back
 get iters 
BJompGKOBiCGStab:  Solving for Ux, Initial residual = 0.598888, Final residual = 7.01793e-07, No Iterations 21
Gingko init_host_sparsity_pattern : 34 ms
 matrix not stored update host matrix 
Gingko update_host_mtx : 16 ms
matrix is not yet sorted,  sorting host matrix 
Gingko sort_host_mtx_sparsity_pattern : 22 ms
Gingko sort_host_mtx : 12 ms
 found preconditioner 
Gingko init_preconditioner : 0 ms
Gingko solve : 124 ms
 copy back
 get iters 
BJompGKOBiCGStab:  Solving for Uy, Initial residual = 0.0995685, Final residual = 8.21733e-07, No Iterations 29
Gingko init_host_sparsity_pattern : 36 ms
 matrix not stored update host matrix 
Gingko update_host_mtx : 16 ms
matrix is not yet sorted,  sorting host matrix 
Gingko sort_host_mtx_sparsity_pattern : 23 ms
Gingko sort_host_mtx : 12 ms
 found preconditioner 
Gingko init_preconditioner : 0 ms
Gingko solve : 142 ms
 copy back
 get iters 
BJompGKOBiCGStab:  Solving for Uz, Initial residual = 0.249969, Final residual = 8.56805e-07, No Iterations 32
 found preconditioner 
Gingko init_preconditioner : 0 ms
 CG create  precond 
Gingko solve : 885 ms
 copy back
 get iters 
BJompGKOCG:  Solving for p, Initial residual = 0.540949, Final residual = 9.38926e-07, No Iterations 408
time step continuity errors : sum local = 1.59881e-09, global = 3.83436e-21, cumulative = -5.55995e-20
 found preconditioner 
Gingko init_preconditioner : 0 ms
 CG create  precond 
Gingko solve : 862 ms
 copy back
 get iters 
BJompGKOCG:  Solving for p, Initial residual = 0.60689, Final residual = 9.19105e-07, No Iterations 407
time step continuity errors : sum local = 1.51283e-09, global = -3.12593e-20, cumulative = -8.68587e-20
ExecutionTime = 395.57 s  ClockTime = 9 s

Time = 0.008

Courant Number mean: 0.123244 max: 0.890102
Gingko init_host_sparsity_pattern : 32 ms
 matrix not stored update host matrix 
Gingko update_host_mtx : 16 ms
matrix is not yet sorted,  sorting host matrix 
Gingko sort_host_mtx_sparsity_pattern : 22 ms
Gingko sort_host_mtx : 13 ms
 found preconditioner 
Gingko init_preconditioner : 0 ms
Gingko solve : 105 ms
 copy back
 get iters 
BJompGKOBiCGStab:  Solving for Ux, Initial residual = 0.560846, Final residual = 7.88561e-07, No Iterations 25
Gingko init_host_sparsity_pattern : 34 ms
 matrix not stored update host matrix 
Gingko update_host_mtx : 16 ms
matrix is not yet sorted,  sorting host matrix 
Gingko sort_host_mtx_sparsity_pattern : 22 ms
Gingko sort_host_mtx : 13 ms
 found preconditioner 
Gingko init_preconditioner : 0 ms
Gingko solve : 138 ms
 copy back
 get iters 
BJompGKOBiCGStab:  Solving for Uy, Initial residual = 0.0341421, Final residual = 8.14478e-07, No Iterations 28
Gingko init_host_sparsity_pattern : 36 ms
 matrix not stored update host matrix 
Gingko update_host_mtx : 25 ms
matrix is not yet sorted,  sorting host matrix 
Gingko sort_host_mtx_sparsity_pattern : 22 ms
Gingko sort_host_mtx : 13 ms
 found preconditioner 
Gingko init_preconditioner : 0 ms
Gingko solve : 127 ms
 copy back
 get iters 
BJompGKOBiCGStab:  Solving for Uz, Initial residual = 0.13238, Final residual = 9.25021e-07, No Iterations 31
 found preconditioner 
Gingko init_preconditioner : 0 ms
 CG create  precond 
Gingko solve : 788 ms
 copy back
 get iters 
BJompGKOCG:  Solving for p, Initial residual = 0.47195, Final residual = 9.07284e-07, No Iterations 403
time step continuity errors : sum local = 1.43249e-09, global = -4.94153e-21, cumulative = -9.18003e-20
 found preconditioner 
Gingko init_preconditioner : 0 ms
 CG create  precond 
Gingko solve : 760 ms
 copy back
 get iters 
BJompGKOCG:  Solving for p, Initial residual = 0.42304, Final residual = 9.22106e-07, No Iterations 402
time step continuity errors : sum local = 1.47704e-09, global = 1.61548e-20, cumulative = -7.56454e-20
ExecutionTime = 520.84 s  ClockTime = 11 s

Time = 0.01

Courant Number mean: 0.136096 max: 0.906942
Gingko init_host_sparsity_pattern : 32 ms
 matrix not stored update host matrix 
Gingko update_host_mtx : 16 ms
matrix is not yet sorted,  sorting host matrix 
Gingko sort_host_mtx_sparsity_pattern : 25 ms
Gingko sort_host_mtx : 12 ms
 found preconditioner 
Gingko init_preconditioner : 0 ms
Gingko solve : 102 ms
 copy back
 get iters 
BJompGKOBiCGStab:  Solving for Ux, Initial residual = 0.368379, Final residual = 7.32567e-07, No Iterations 24
Gingko init_host_sparsity_pattern : 33 ms
 matrix not stored update host matrix 
Gingko update_host_mtx : 15 ms
matrix is not yet sorted,  sorting host matrix 
Gingko sort_host_mtx_sparsity_pattern : 22 ms
Gingko sort_host_mtx : 12 ms
 found preconditioner 
Gingko init_preconditioner : 0 ms
Gingko solve : 94 ms
 copy back
 get iters 
BJompGKOBiCGStab:  Solving for Uy, Initial residual = 0.0230738, Final residual = 9.76221e-07, No Iterations 25
Gingko init_host_sparsity_pattern : 34 ms
 matrix not stored update host matrix 
Gingko update_host_mtx : 16 ms
matrix is not yet sorted,  sorting host matrix 
Gingko sort_host_mtx_sparsity_pattern : 22 ms
Gingko sort_host_mtx : 12 ms
 found preconditioner 
Gingko init_preconditioner : 0 ms
Gingko solve : 105 ms
 copy back
 get iters 
BJompGKOBiCGStab:  Solving for Uz, Initial residual = 0.0484117, Final residual = 8.50074e-07, No Iterations 28
 found preconditioner 
Gingko init_preconditioner : 0 ms
 CG create  precond 
Gingko solve : 733 ms
 copy back
 get iters 
BJompGKOCG:  Solving for p, Initial residual = 0.159037, Final residual = 9.8715e-07, No Iterations 381
time step continuity errors : sum local = 1.34865e-09, global = 4.33725e-20, cumulative = -3.22729e-20
 found preconditioner 
Gingko init_preconditioner : 0 ms
 CG create  precond 
Gingko solve : 713 ms
 copy back
 get iters 
BJompGKOCG:  Solving for p, Initial residual = 0.361668, Final residual = 9.57799e-07, No Iterations 380
time step continuity errors : sum local = 1.29683e-09, global = -7.14822e-20, cumulative = -1.03755e-19
ExecutionTime = 635.02 s  ClockTime = 13 s

End

