/*---------------------------------------------------------------------------*\
  =========                 |
  \\      /  F ield         | OpenFOAM: The Open Source CFD Toolbox
   \\    /   O peration     | Website:  https://openfoam.org
    \\  /    A nd           | Version:  8
     \\/     M anipulation  |
\*---------------------------------------------------------------------------*/
Build  : 8-13d66902f78c
Exec   : icoFoam
Date   : Jun 27 2021
Time   : 23:34:03
Host   : "uc2n477.localdomain"
PID    : 4182405
I/O    : uncollated
Case   : /pfs/data5/home/kit/scc/nq7776/code/OGL_DATA/lidDrivenCavity3D/v0.1-118-gbd9d99d/f584ccac99/IntelXeonGold6230CPU@2.10GHz/Test_2021-06-27-23:04:46/50/p-U-BiCGStab-GKO-none-omp/lidDrivenCavity3D
nProcs : 1
sigFpe : Enabling floating point exception trapping (FOAM_SIGFPE).
fileModificationChecking : Monitoring run-time modified files using timeStampMaster (fileModificationSkew 10)
allowSystemOperations : Allowing user-supplied system call operations

// * * * * * * * * * * * * * * * * * * * * * * * * * * * * * * * * * * * * * //
Create time

Create mesh for time = 0

Reading transportProperties

Reading field p

Reading field U

Reading/calculating face flux field phi


Starting time loop

Time = 0.002

Courant Number mean: 0 max: 0
Gingko init_host_sparsity_pattern : 35 ms
 matrix not stored update host matrix 
Gingko update_host_mtx : 18 ms
matrix is not yet sorted, compute sorting idxs 
 compute sorting idxs 860000
Gingko compute_sort : 998 ms
matrix is not yet sorted,  sorting host matrix 
Gingko sort_host_mtx_sparsity_pattern : 23 ms
Gingko sort_host_mtx : 15 ms
Gingko init_preconditioner : 0 ms
 get_precond == NULL
Gingko solve : 120 ms
 copy back
 get iters 
noneompGKOBiCGStab:  Solving for Ux, Initial residual = 0, Final residual = 8.72813e-07, No Iterations 41
Gingko init_host_sparsity_pattern : 35 ms
 matrix not stored update host matrix 
Gingko update_host_mtx : 18 ms
matrix is not yet sorted,  sorting host matrix 
Gingko sort_host_mtx_sparsity_pattern : 24 ms
Gingko sort_host_mtx : 12 ms
Gingko init_preconditioner : 0 ms
 get_precond == NULL
Gingko solve : 2 ms
 copy back
 get iters 
noneompGKOBiCGStab:  Solving for Uy, Initial residual = 1, Final residual = 0, No Iterations 0
Gingko init_host_sparsity_pattern : 33 ms
 matrix not stored update host matrix 
Gingko update_host_mtx : 15 ms
matrix is not yet sorted,  sorting host matrix 
Gingko sort_host_mtx_sparsity_pattern : 23 ms
Gingko sort_host_mtx : 12 ms
Gingko init_preconditioner : 0 ms
 get_precond == NULL
Gingko solve : 1 ms
 copy back
 get iters 
noneompGKOBiCGStab:  Solving for Uz, Initial residual = 0, Final residual = 0, No Iterations 0
Gingko init_host_sparsity_pattern : 33 ms
 matrix not stored update host matrix 
Gingko update_host_mtx : 18 ms
matrix is not yet sorted,  sorting host matrix 
Gingko sort_host_mtx_sparsity_pattern : 22 ms
Gingko sort_host_mtx : 13 ms
Gingko init_preconditioner : 0 ms
 get_precond == NULL
Gingko solve : 1011 ms
 copy back
 get iters 
noneompGKOBiCGStab:  Solving for p, Initial residual = 0, Final residual = 8.43708e-07, No Iterations 349
time step continuity errors : sum local = 9.83941e-09, global = -3.70972e-21, cumulative = -3.70972e-21
Gingko init_preconditioner : 0 ms
 get_precond == NULL
Gingko solve : 1003 ms
 copy back
 get iters 
noneompGKOBiCGStab:  Solving for p, Initial residual = 1, Final residual = 8.25207e-07, No Iterations 349
time step continuity errors : sum local = 1.67251e-08, global = 2.4458e-20, cumulative = 2.07482e-20
ExecutionTime = 19.31 s  ClockTime = 5 s

Time = 0.004

Courant Number mean: 0.0720722 max: 0.726639
Gingko init_host_sparsity_pattern : 32 ms
 matrix not stored update host matrix 
Gingko update_host_mtx : 16 ms
matrix is not yet sorted,  sorting host matrix 
Gingko sort_host_mtx_sparsity_pattern : 24 ms
Gingko sort_host_mtx : 12 ms
Gingko init_preconditioner : 0 ms
 get_precond == NULL
Gingko solve : 108 ms
 copy back
 get iters 
noneompGKOBiCGStab:  Solving for Ux, Initial residual = 0.721587, Final residual = 7.12361e-07, No Iterations 36
Gingko init_host_sparsity_pattern : 33 ms
 matrix not stored update host matrix 
Gingko update_host_mtx : 16 ms
matrix is not yet sorted,  sorting host matrix 
Gingko sort_host_mtx_sparsity_pattern : 21 ms
Gingko sort_host_mtx : 12 ms
Gingko init_preconditioner : 0 ms
 get_precond == NULL
Gingko solve : 125 ms
 copy back
 get iters 
noneompGKOBiCGStab:  Solving for Uy, Initial residual = 0.203469, Final residual = 8.7912e-07, No Iterations 42
Gingko init_host_sparsity_pattern : 33 ms
 matrix not stored update host matrix 
Gingko update_host_mtx : 16 ms
matrix is not yet sorted,  sorting host matrix 
Gingko sort_host_mtx_sparsity_pattern : 21 ms
Gingko sort_host_mtx : 12 ms
Gingko init_preconditioner : 0 ms
 get_precond == NULL
Gingko solve : 120 ms
 copy back
 get iters 
noneompGKOBiCGStab:  Solving for Uz, Initial residual = 0.618427, Final residual = 4.26216e-07, No Iterations 41
Gingko init_preconditioner : 0 ms
 get_precond == NULL
Gingko solve : 1012 ms
 copy back
 get iters 
noneompGKOBiCGStab:  Solving for p, Initial residual = 0.536427, Final residual = 6.30371e-07, No Iterations 343
time step continuity errors : sum local = 4.34736e-08, global = 5.36319e-21, cumulative = 2.61114e-20
Gingko init_preconditioner : 0 ms
 get_precond == NULL
Gingko solve : 1021 ms
 copy back
 get iters 
noneompGKOBiCGStab:  Solving for p, Initial residual = 0.673318, Final residual = 4.5221e-07, No Iterations 349
time step continuity errors : sum local = 1.61136e-07, global = -2.63037e-20, cumulative = -1.92287e-22
ExecutionTime = 38.96 s  ClockTime = 7 s

Time = 0.006

Courant Number mean: 0.107408 max: 0.881755
Gingko init_host_sparsity_pattern : 32 ms
 matrix not stored update host matrix 
Gingko update_host_mtx : 16 ms
matrix is not yet sorted,  sorting host matrix 
Gingko sort_host_mtx_sparsity_pattern : 23 ms
Gingko sort_host_mtx : 12 ms
Gingko init_preconditioner : 0 ms
 get_precond == NULL
Gingko solve : 103 ms
 copy back
 get iters 
noneompGKOBiCGStab:  Solving for Ux, Initial residual = 0.59889, Final residual = 9.47936e-07, No Iterations 35
Gingko init_host_sparsity_pattern : 33 ms
 matrix not stored update host matrix 
Gingko update_host_mtx : 16 ms
matrix is not yet sorted,  sorting host matrix 
Gingko sort_host_mtx_sparsity_pattern : 21 ms
Gingko sort_host_mtx : 12 ms
Gingko init_preconditioner : 0 ms
 get_precond == NULL
Gingko solve : 107 ms
 copy back
 get iters 
noneompGKOBiCGStab:  Solving for Uy, Initial residual = 0.0995837, Final residual = 7.05081e-07, No Iterations 36
Gingko init_host_sparsity_pattern : 32 ms
 matrix not stored update host matrix 
Gingko update_host_mtx : 16 ms
matrix is not yet sorted,  sorting host matrix 
Gingko sort_host_mtx_sparsity_pattern : 21 ms
Gingko sort_host_mtx : 12 ms
Gingko init_preconditioner : 0 ms
 get_precond == NULL
Gingko solve : 112 ms
 copy back
 get iters 
noneompGKOBiCGStab:  Solving for Uz, Initial residual = 0.24993, Final residual = 7.5206e-07, No Iterations 38
Gingko init_preconditioner : 0 ms
 get_precond == NULL
Gingko solve : 1055 ms
 copy back
 get iters 
noneompGKOBiCGStab:  Solving for p, Initial residual = 0.541872, Final residual = 9.59427e-07, No Iterations 359
time step continuity errors : sum local = 1.8436e-08, global = -2.30893e-20, cumulative = -2.32816e-20
Gingko init_preconditioner : 0 ms
 get_precond == NULL
Gingko solve : 987 ms
 copy back
 get iters 
noneompGKOBiCGStab:  Solving for p, Initial residual = 0.606914, Final residual = 6.46578e-07, No Iterations 337
time step continuity errors : sum local = 2.52856e-07, global = 2.2146e-20, cumulative = -1.13557e-21
ExecutionTime = 58.42 s  ClockTime = 10 s

Time = 0.008

Courant Number mean: 0.123244 max: 0.890102
Gingko init_host_sparsity_pattern : 32 ms
 matrix not stored update host matrix 
Gingko update_host_mtx : 16 ms
matrix is not yet sorted,  sorting host matrix 
Gingko sort_host_mtx_sparsity_pattern : 21 ms
Gingko sort_host_mtx : 12 ms
Gingko init_preconditioner : 0 ms
 get_precond == NULL
Gingko solve : 104 ms
 copy back
 get iters 
noneompGKOBiCGStab:  Solving for Ux, Initial residual = 0.560815, Final residual = 8.52275e-07, No Iterations 31
Gingko init_host_sparsity_pattern : 35 ms
 matrix not stored update host matrix 
Gingko update_host_mtx : 20 ms
matrix is not yet sorted,  sorting host matrix 
Gingko sort_host_mtx_sparsity_pattern : 22 ms
Gingko sort_host_mtx : 12 ms
Gingko init_preconditioner : 0 ms
 get_precond == NULL
Gingko solve : 107 ms
 copy back
 get iters 
noneompGKOBiCGStab:  Solving for Uy, Initial residual = 0.03415, Final residual = 9.78178e-07, No Iterations 36
Gingko init_host_sparsity_pattern : 33 ms
 matrix not stored update host matrix 
Gingko update_host_mtx : 16 ms
matrix is not yet sorted,  sorting host matrix 
Gingko sort_host_mtx_sparsity_pattern : 21 ms
Gingko sort_host_mtx : 12 ms
Gingko init_preconditioner : 0 ms
 get_precond == NULL
Gingko solve : 118 ms
 copy back
 get iters 
noneompGKOBiCGStab:  Solving for Uz, Initial residual = 0.132385, Final residual = 4.64547e-07, No Iterations 39
Gingko init_preconditioner : 0 ms
 get_precond == NULL
Gingko solve : 1061 ms
 copy back
 get iters 
noneompGKOBiCGStab:  Solving for p, Initial residual = 0.473274, Final residual = 8.46062e-07, No Iterations 351
time step continuity errors : sum local = 4.99861e-08, global = 1.92051e-21, cumulative = 7.84936e-22
Gingko init_preconditioner : 0 ms
 get_precond == NULL
Gingko solve : 1109 ms
 copy back
 get iters 
noneompGKOBiCGStab:  Solving for p, Initial residual = 0.423132, Final residual = 4.64063e-07, No Iterations 370
time step continuity errors : sum local = 3.29085e-08, global = -3.91615e-21, cumulative = -3.13121e-21
ExecutionTime = 78.97 s  ClockTime = 13 s

Time = 0.01

Courant Number mean: 0.136096 max: 0.906943
Gingko init_host_sparsity_pattern : 34 ms
 matrix not stored update host matrix 
Gingko update_host_mtx : 16 ms
matrix is not yet sorted,  sorting host matrix 
Gingko sort_host_mtx_sparsity_pattern : 21 ms
Gingko sort_host_mtx : 12 ms
Gingko init_preconditioner : 0 ms
 get_precond == NULL
Gingko solve : 89 ms
 copy back
 get iters 
noneompGKOBiCGStab:  Solving for Ux, Initial residual = 0.368443, Final residual = 9.25362e-07, No Iterations 29
Gingko init_host_sparsity_pattern : 34 ms
 matrix not stored update host matrix 
Gingko update_host_mtx : 16 ms
matrix is not yet sorted,  sorting host matrix 
Gingko sort_host_mtx_sparsity_pattern : 21 ms
Gingko sort_host_mtx : 12 ms
Gingko init_preconditioner : 0 ms
 get_precond == NULL
Gingko solve : 94 ms
 copy back
 get iters 
noneompGKOBiCGStab:  Solving for Uy, Initial residual = 0.0230668, Final residual = 9.20444e-07, No Iterations 31
Gingko init_host_sparsity_pattern : 34 ms
 matrix not stored update host matrix 
Gingko update_host_mtx : 16 ms
matrix is not yet sorted,  sorting host matrix 
Gingko sort_host_mtx_sparsity_pattern : 21 ms
Gingko sort_host_mtx : 12 ms
Gingko init_preconditioner : 0 ms
 get_precond == NULL
Gingko solve : 102 ms
 copy back
 get iters 
noneompGKOBiCGStab:  Solving for Uz, Initial residual = 0.0484577, Final residual = 9.87181e-07, No Iterations 34
Gingko init_preconditioner : 0 ms
 get_precond == NULL
Gingko solve : 996 ms
 copy back
 get iters 
noneompGKOBiCGStab:  Solving for p, Initial residual = 0.159731, Final residual = 9.83152e-07, No Iterations 330
time step continuity errors : sum local = 3.57926e-09, global = 3.87918e-20, cumulative = 3.56605e-20
Gingko init_preconditioner : 0 ms
 get_precond == NULL
Gingko solve : 971 ms
 copy back
 get iters 
noneompGKOBiCGStab:  Solving for p, Initial residual = 0.361654, Final residual = 9.03324e-07, No Iterations 324
time step continuity errors : sum local = 3.29478e-08, global = 1.91253e-20, cumulative = 5.47858e-20
ExecutionTime = 97.54 s  ClockTime = 16 s

End

