/*---------------------------------------------------------------------------*\
  =========                 |
  \\      /  F ield         | OpenFOAM: The Open Source CFD Toolbox
   \\    /   O peration     | Website:  https://openfoam.org
    \\  /    A nd           | Version:  8
     \\/     M anipulation  |
\*---------------------------------------------------------------------------*/
Build  : 8-13d66902f78c
Exec   : simpleFoam
Date   : Jun 27 2021
Time   : 22:33:29
Host   : "uc2n470.localdomain"
PID    : 486117
I/O    : uncollated
Case   : /pfs/data5/home/kit/scc/nq7776/code/OGL_DATA/airFoil2D/v0.1-118-gbd9d99d/f584ccac99/IntelXeonGold6230CPU@2.10GHz/Test_2021-06-27-22:11:12/1/p-U-BiCGStab-GKO-none-omp/airFoil2D
nProcs : 1
sigFpe : Enabling floating point exception trapping (FOAM_SIGFPE).
fileModificationChecking : Monitoring run-time modified files using timeStampMaster (fileModificationSkew 10)
allowSystemOperations : Allowing user-supplied system call operations

// * * * * * * * * * * * * * * * * * * * * * * * * * * * * * * * * * * * * * //
Create time

Create mesh for time = 0


SIMPLE: Convergence criteria found
        p: tolerance 1e-05
        U: tolerance 1e-05
        nuTilda: tolerance 1e-05

Reading field p

Reading field U

Reading/calculating face flux field phi

Selecting incompressible transport model Newtonian
Selecting turbulence model type RAS
Selecting RAS turbulence model SpalartAllmaras
Selecting patchDistMethod meshWave
RAS
{
    model           SpalartAllmaras;
    turbulence      on;
    printCoeffs     on;
    sigmaNut        0.66666;
    kappa           0.41;
    Cb1             0.1355;
    Cb2             0.622;
    Cw2             0.3;
    Cw3             2;
    Cv1             7.1;
    Cs              0.3;
}

No MRF models present

No finite volume options present

Starting time loop

Time = 1

Gingko init_host_sparsity_pattern : 8 ms
 matrix not stored update host matrix 
Gingko update_host_mtx : 4 ms
matrix is not yet sorted, compute sorting idxs 
 compute sorting idxs 214288
Gingko compute_sort : 227 ms
matrix is not yet sorted,  sorting host matrix 
Gingko sort_host_mtx_sparsity_pattern : 5 ms
Gingko sort_host_mtx : 3 ms
Gingko init_preconditioner : 0 ms
 get_precond == NULL
Gingko solve : 498 ms
 copy back
 get iters 
noneompGKOBiCGStab:  Solving for Ux, Initial residual = -0, Final residual = 9.05428e-07, No Iterations 313
Gingko init_host_sparsity_pattern : 8 ms
 matrix not stored update host matrix 
Gingko update_host_mtx : 4 ms
matrix is not yet sorted,  sorting host matrix 
Gingko sort_host_mtx_sparsity_pattern : 5 ms
Gingko sort_host_mtx : 3 ms
Gingko init_preconditioner : 0 ms
 get_precond == NULL
Gingko solve : 572 ms
 copy back
 get iters 
noneompGKOBiCGStab:  Solving for Uy, Initial residual = 130.982, Final residual = 9.82174e-07, No Iterations 299
Gingko init_host_sparsity_pattern : 8 ms
 matrix not stored update host matrix 
Gingko update_host_mtx : 4 ms
matrix is not yet sorted,  sorting host matrix 
Gingko sort_host_mtx_sparsity_pattern : 7 ms
Gingko sort_host_mtx : 3 ms
Gingko init_preconditioner : 0 ms
 get_precond == NULL
Gingko solve : 989 ms
 copy back
 get iters 
noneompGKOBiCGStab:  Solving for p, Initial residual = 133.957, Final residual = 0.0280559, No Iterations 499
time step continuity errors : sum local = 0.00172543, global = -7.44811e-05, cumulative = -7.44811e-05
smoothSolver:  Solving for nuTilda, Initial residual = 1, Final residual = 0.0685336, No Iterations 2
ExecutionTime = 4.77 s  ClockTime = 3 s

Time = 2

Gingko init_host_sparsity_pattern : 7 ms
 matrix not stored update host matrix 
Gingko update_host_mtx : 3 ms
matrix is not yet sorted,  sorting host matrix 
Gingko sort_host_mtx_sparsity_pattern : 5 ms
Gingko sort_host_mtx : 3 ms
Gingko init_preconditioner : 0 ms
 get_precond == NULL
Gingko solve : 699 ms
 copy back
 get iters 
noneompGKOBiCGStab:  Solving for Ux, Initial residual = 1, Final residual = 6.65485e-07, No Iterations 355
Gingko init_host_sparsity_pattern : 7 ms
 matrix not stored update host matrix 
Gingko update_host_mtx : 3 ms
matrix is not yet sorted,  sorting host matrix 
Gingko sort_host_mtx_sparsity_pattern : 5 ms
Gingko sort_host_mtx : 3 ms
Gingko init_preconditioner : 0 ms
 get_precond == NULL
Gingko solve : 732 ms
 copy back
 get iters 
noneompGKOBiCGStab:  Solving for Uy, Initial residual = 0.506877, Final residual = 7.83365e-07, No Iterations 371
Gingko init_preconditioner : 0 ms
 get_precond == NULL
Gingko solve : 973 ms
 copy back
 get iters 
noneompGKOBiCGStab:  Solving for p, Initial residual = 0.648383, Final residual = 0.0115466, No Iterations 499
time step continuity errors : sum local = 0.00945571, global = 0.00305074, cumulative = 0.00297626
smoothSolver:  Solving for nuTilda, Initial residual = 0.118909, Final residual = 0.00537142, No Iterations 4
ExecutionTime = 9.67 s  ClockTime = 6 s

Time = 3

Gingko init_host_sparsity_pattern : 7 ms
 matrix not stored update host matrix 
Gingko update_host_mtx : 3 ms
matrix is not yet sorted,  sorting host matrix 
Gingko sort_host_mtx_sparsity_pattern : 5 ms
Gingko sort_host_mtx : 3 ms
Gingko init_preconditioner : 0 ms
 get_precond == NULL
Gingko solve : 532 ms
 copy back
 get iters 
noneompGKOBiCGStab:  Solving for Ux, Initial residual = 0.348167, Final residual = 8.12623e-07, No Iterations 270
Gingko init_host_sparsity_pattern : 7 ms
 matrix not stored update host matrix 
Gingko update_host_mtx : 3 ms
matrix is not yet sorted,  sorting host matrix 
Gingko sort_host_mtx_sparsity_pattern : 5 ms
Gingko sort_host_mtx : 3 ms
Gingko init_preconditioner : 0 ms
 get_precond == NULL
Gingko solve : 446 ms
 copy back
 get iters 
noneompGKOBiCGStab:  Solving for Uy, Initial residual = 0.321257, Final residual = 9.40291e-07, No Iterations 228
Gingko init_preconditioner : 0 ms
 get_precond == NULL
Gingko solve : 968 ms
 copy back
 get iters 
noneompGKOBiCGStab:  Solving for p, Initial residual = 0.250815, Final residual = 0.0112732, No Iterations 499
time step continuity errors : sum local = 0.0126714, global = 0.00460835, cumulative = 0.00758461
smoothSolver:  Solving for nuTilda, Initial residual = 0.116036, Final residual = 0.0051121, No Iterations 4
ExecutionTime = 13.65 s  ClockTime = 8 s

Time = 4

Gingko init_host_sparsity_pattern : 7 ms
 matrix not stored update host matrix 
Gingko update_host_mtx : 4 ms
matrix is not yet sorted,  sorting host matrix 
Gingko sort_host_mtx_sparsity_pattern : 5 ms
Gingko sort_host_mtx : 3 ms
Gingko init_preconditioner : 0 ms
 get_precond == NULL
Gingko solve : 687 ms
 copy back
 get iters 
noneompGKOBiCGStab:  Solving for Ux, Initial residual = 0.239537, Final residual = 9.41086e-07, No Iterations 351
Gingko init_host_sparsity_pattern : 8 ms
 matrix not stored update host matrix 
Gingko update_host_mtx : 4 ms
matrix is not yet sorted,  sorting host matrix 
Gingko sort_host_mtx_sparsity_pattern : 5 ms
Gingko sort_host_mtx : 3 ms
Gingko init_preconditioner : 0 ms
 get_precond == NULL
Gingko solve : 609 ms
 copy back
 get iters 
noneompGKOBiCGStab:  Solving for Uy, Initial residual = 0.234455, Final residual = 9.96079e-07, No Iterations 311
Gingko init_preconditioner : 0 ms
 get_precond == NULL
Gingko solve : 973 ms
 copy back
 get iters 
noneompGKOBiCGStab:  Solving for p, Initial residual = 0.213586, Final residual = 0.00718855, No Iterations 499
time step continuity errors : sum local = 0.0140361, global = 0.00608762, cumulative = 0.0136722
smoothSolver:  Solving for nuTilda, Initial residual = 0.12309, Final residual = 0.00589545, No Iterations 4
bounding nuTilda, min: -0.235234 max: 0.35305 average: 0.13944
ExecutionTime = 18.28 s  ClockTime = 10 s

Time = 5

Gingko init_host_sparsity_pattern : 7 ms
 matrix not stored update host matrix 
Gingko update_host_mtx : 3 ms
matrix is not yet sorted,  sorting host matrix 
Gingko sort_host_mtx_sparsity_pattern : 5 ms
Gingko sort_host_mtx : 3 ms
Gingko init_preconditioner : 0 ms
 get_precond == NULL
Gingko solve : 998 ms
 copy back
 get iters 
noneompGKOBiCGStab:  Solving for Ux, Initial residual = 0.148258, Final residual = 8.31915e-07, No Iterations 499
Gingko init_host_sparsity_pattern : 8 ms
 matrix not stored update host matrix 
Gingko update_host_mtx : 3 ms
matrix is not yet sorted,  sorting host matrix 
Gingko sort_host_mtx_sparsity_pattern : 5 ms
Gingko sort_host_mtx : 3 ms
Gingko init_preconditioner : 0 ms
 get_precond == NULL
Gingko solve : 986 ms
 copy back
 get iters 
noneompGKOBiCGStab:  Solving for Uy, Initial residual = 0.209685, Final residual = 4.00895e-06, No Iterations 499
Gingko init_preconditioner : 0 ms
 get_precond == NULL
Gingko solve : 975 ms
 copy back
 get iters 
noneompGKOBiCGStab:  Solving for p, Initial residual = 0.224394, Final residual = 0.0143826, No Iterations 499
time step continuity errors : sum local = 62.2271, global = 0.00756141, cumulative = 0.0212336
smoothSolver:  Solving for nuTilda, Initial residual = 0.00426524, Final residual = 0.000146537, No Iterations 6
bounding nuTilda, min: -0.0072227 max: 0.442488 average: 0.139646
ExecutionTime = 24.28 s  ClockTime = 13 s

End

