/*---------------------------------------------------------------------------*\
  =========                 |
  \\      /  F ield         | OpenFOAM: The Open Source CFD Toolbox
   \\    /   O peration     | Website:  https://openfoam.org
    \\  /    A nd           | Version:  8
     \\/     M anipulation  |
\*---------------------------------------------------------------------------*/
Build  : 8-13d66902f78c
Exec   : simpleFoam
Date   : Jun 27 2021
Time   : 23:01:00
Host   : "uc2n513.localdomain"
PID    : 3451295
I/O    : uncollated
Case   : /pfs/data5/home/kit/scc/nq7776/code/OGL_DATA/airFoil2D/v0.1-118-gbd9d99d/f584ccac99/TeslaV100-SXM2-32GB/Test_2021-06-27-22:58:52/1/p-U-CG-GKO-BJ-cuda/airFoil2D
nProcs : 1
sigFpe : Enabling floating point exception trapping (FOAM_SIGFPE).
fileModificationChecking : Monitoring run-time modified files using timeStampMaster (fileModificationSkew 10)
allowSystemOperations : Allowing user-supplied system call operations

// * * * * * * * * * * * * * * * * * * * * * * * * * * * * * * * * * * * * * //
Create time

Create mesh for time = 0


SIMPLE: Convergence criteria found
        p: tolerance 1e-05
        U: tolerance 1e-05
        nuTilda: tolerance 1e-05

Reading field p

Reading field U

Reading/calculating face flux field phi

Selecting incompressible transport model Newtonian
Selecting turbulence model type RAS
Selecting RAS turbulence model SpalartAllmaras
Selecting patchDistMethod meshWave
RAS
{
    model           SpalartAllmaras;
    turbulence      on;
    printCoeffs     on;
    sigmaNut        0.66666;
    kappa           0.41;
    Cb1             0.1355;
    Cb2             0.622;
    Cw2             0.3;
    Cw3             2;
    Cv1             7.1;
    Cs              0.3;
}

No MRF models present

No finite volume options present

Starting time loop

Time = 1

Gingko init_host_sparsity_pattern : 8 ms
 matrix not stored update host matrix 
Gingko update_host_mtx : 4 ms
matrix is not yet sorted, compute sorting idxs 
 compute sorting idxs 214288
Gingko compute_sort : 225 ms
matrix is not yet sorted,  sorting host matrix 
Gingko sort_host_mtx_sparsity_pattern : 5 ms
Gingko sort_host_mtx : 3 ms
Gingko init_preconditioner : 6 ms
Gingko solve : 12 ms
 copy back
 get iters 
BJcudaGKOBiCGStab:  Solving for Ux, Initial residual = -0, Final residual = 7.26213e-07, No Iterations 29
Gingko init_host_sparsity_pattern : 8 ms
 matrix not stored update host matrix 
Gingko update_host_mtx : 4 ms
matrix is not yet sorted,  sorting host matrix 
Gingko sort_host_mtx_sparsity_pattern : 5 ms
Gingko sort_host_mtx : 3 ms
Gingko init_preconditioner : 5 ms
Gingko solve : 11 ms
 copy back
 get iters 
BJcudaGKOBiCGStab:  Solving for Uy, Initial residual = 130.982, Final residual = 7.41617e-07, No Iterations 29
Gingko init_host_sparsity_pattern : 7 ms
 matrix not stored update host matrix 
Gingko update_host_mtx : 3 ms
matrix is not yet sorted,  sorting host matrix 
Gingko sort_host_mtx_sparsity_pattern : 5 ms
Gingko sort_host_mtx : 3 ms
Gingko init_preconditioner : 5 ms
 CG create  precond 
Gingko solve : 175 ms
 copy back
 get iters 
BJcudaGKOCG:  Solving for p, Initial residual = 133.957, Final residual = 3.2288e-05, No Iterations 999
time step continuity errors : sum local = 1.99118e-06, global = -2.31482e-08, cumulative = -2.31482e-08
smoothSolver:  Solving for nuTilda, Initial residual = 1, Final residual = 0.0692675, No Iterations 2
ExecutionTime = 1.59 s  ClockTime = 1 s

Time = 2

Gingko init_host_sparsity_pattern : 7 ms
 matrix not stored update host matrix 
Gingko update_host_mtx : 3 ms
matrix is not yet sorted,  sorting host matrix 
Gingko sort_host_mtx_sparsity_pattern : 5 ms
Gingko sort_host_mtx : 3 ms
 found preconditioner 
Gingko init_preconditioner : 0 ms
Gingko solve : 12 ms
 copy back
 get iters 
BJcudaGKOBiCGStab:  Solving for Ux, Initial residual = 1, Final residual = 9.40221e-07, No Iterations 31
Gingko init_host_sparsity_pattern : 7 ms
 matrix not stored update host matrix 
Gingko update_host_mtx : 3 ms
matrix is not yet sorted,  sorting host matrix 
Gingko sort_host_mtx_sparsity_pattern : 5 ms
Gingko sort_host_mtx : 3 ms
 found preconditioner 
Gingko init_preconditioner : 0 ms
Gingko solve : 10 ms
 copy back
 get iters 
BJcudaGKOBiCGStab:  Solving for Uy, Initial residual = 0.547354, Final residual = 9.02104e-07, No Iterations 28
 found preconditioner 
Gingko init_preconditioner : 0 ms
 CG create  precond 
Gingko solve : 175 ms
 copy back
 get iters 
BJcudaGKOCG:  Solving for p, Initial residual = 0.716651, Final residual = 1.22603e-05, No Iterations 999
time step continuity errors : sum local = 0.00859076, global = 0.00404478, cumulative = 0.00404476
smoothSolver:  Solving for nuTilda, Initial residual = 0.124201, Final residual = 0.00551494, No Iterations 4
ExecutionTime = 1.87 s  ClockTime = 1 s

Time = 3

Gingko init_host_sparsity_pattern : 7 ms
 matrix not stored update host matrix 
Gingko update_host_mtx : 3 ms
matrix is not yet sorted,  sorting host matrix 
Gingko sort_host_mtx_sparsity_pattern : 5 ms
Gingko sort_host_mtx : 3 ms
 found preconditioner 
Gingko init_preconditioner : 0 ms
Gingko solve : 9 ms
 copy back
 get iters 
BJcudaGKOBiCGStab:  Solving for Ux, Initial residual = 0.173377, Final residual = 9.58288e-07, No Iterations 25
Gingko init_host_sparsity_pattern : 8 ms
 matrix not stored update host matrix 
Gingko update_host_mtx : 4 ms
matrix is not yet sorted,  sorting host matrix 
Gingko sort_host_mtx_sparsity_pattern : 5 ms
Gingko sort_host_mtx : 3 ms
 found preconditioner 
Gingko init_preconditioner : 0 ms
Gingko solve : 8 ms
 copy back
 get iters 
BJcudaGKOBiCGStab:  Solving for Uy, Initial residual = 0.279293, Final residual = 9.05286e-07, No Iterations 21
 found preconditioner 
Gingko init_preconditioner : 0 ms
 CG create  precond 
Gingko solve : 179 ms
 copy back
 get iters 
BJcudaGKOCG:  Solving for p, Initial residual = 0.214144, Final residual = 6.41041e-06, No Iterations 999
time step continuity errors : sum local = 0.0116848, global = 0.00534818, cumulative = 0.00939294
smoothSolver:  Solving for nuTilda, Initial residual = 0.119541, Final residual = 0.00522744, No Iterations 4
ExecutionTime = 2.16 s  ClockTime = 2 s

Time = 4

Gingko init_host_sparsity_pattern : 7 ms
 matrix not stored update host matrix 
Gingko update_host_mtx : 3 ms
matrix is not yet sorted,  sorting host matrix 
Gingko sort_host_mtx_sparsity_pattern : 5 ms
Gingko sort_host_mtx : 3 ms
 found preconditioner 
Gingko init_preconditioner : 0 ms
Gingko solve : 11 ms
 copy back
 get iters 
BJcudaGKOBiCGStab:  Solving for Ux, Initial residual = 0.14686, Final residual = 8.40367e-07, No Iterations 29
Gingko init_host_sparsity_pattern : 7 ms
 matrix not stored update host matrix 
Gingko update_host_mtx : 3 ms
matrix is not yet sorted,  sorting host matrix 
Gingko sort_host_mtx_sparsity_pattern : 5 ms
Gingko sort_host_mtx : 3 ms
 found preconditioner 
Gingko init_preconditioner : 0 ms
Gingko solve : 11 ms
 copy back
 get iters 
BJcudaGKOBiCGStab:  Solving for Uy, Initial residual = 0.226577, Final residual = 9.57464e-07, No Iterations 30
 found preconditioner 
Gingko init_preconditioner : 0 ms
 CG create  precond 
Gingko solve : 175 ms
 copy back
 get iters 
BJcudaGKOCG:  Solving for p, Initial residual = 0.170574, Final residual = 5.66348e-06, No Iterations 999
time step continuity errors : sum local = 0.0129653, global = 0.00522271, cumulative = 0.0146156
smoothSolver:  Solving for nuTilda, Initial residual = 0.125627, Final residual = 0.00567018, No Iterations 4
bounding nuTilda, min: -0.105267 max: 0.349823 average: 0.139475
ExecutionTime = 2.44 s  ClockTime = 2 s

Time = 5

Gingko init_host_sparsity_pattern : 7 ms
 matrix not stored update host matrix 
Gingko update_host_mtx : 3 ms
matrix is not yet sorted,  sorting host matrix 
Gingko sort_host_mtx_sparsity_pattern : 5 ms
Gingko sort_host_mtx : 3 ms
 found preconditioner 
Gingko init_preconditioner : 0 ms
Gingko solve : 16 ms
 copy back
 get iters 
BJcudaGKOBiCGStab:  Solving for Ux, Initial residual = 0.269479, Final residual = 9.84323e-07, No Iterations 43
Gingko init_host_sparsity_pattern : 7 ms
 matrix not stored update host matrix 
Gingko update_host_mtx : 3 ms
matrix is not yet sorted,  sorting host matrix 
Gingko sort_host_mtx_sparsity_pattern : 5 ms
Gingko sort_host_mtx : 3 ms
 found preconditioner 
Gingko init_preconditioner : 0 ms
Gingko solve : 15 ms
 copy back
 get iters 
BJcudaGKOBiCGStab:  Solving for Uy, Initial residual = 0.217033, Final residual = 8.32655e-07, No Iterations 42
 found preconditioner 
Gingko init_preconditioner : 0 ms
 CG create  precond 
Gingko solve : 175 ms
 copy back
 get iters 
BJcudaGKOCG:  Solving for p, Initial residual = 0.15997, Final residual = 1.20529e-05, No Iterations 999
time step continuity errors : sum local = 1.6227, global = 0.00573937, cumulative = 0.020355
smoothSolver:  Solving for nuTilda, Initial residual = 0.0535667, Final residual = 0.00282238, No Iterations 22
ExecutionTime = 2.73 s  ClockTime = 2 s

End

