/*---------------------------------------------------------------------------*\
  =========                 |
  \\      /  F ield         | OpenFOAM: The Open Source CFD Toolbox
   \\    /   O peration     | Website:  https://openfoam.org
    \\  /    A nd           | Version:  8
     \\/     M anipulation  |
\*---------------------------------------------------------------------------*/
Build  : 8-13d66902f78c
Exec   : simpleFoam
Date   : Jun 27 2021
Time   : 21:55:08
Host   : "uc2n529.localdomain"
PID    : 3708670
I/O    : uncollated
Case   : /pfs/data5/home/kit/scc/nq7776/code/OGL_DATA/airFoil2D/v0.1-118-gbd9d99d/f584ccac99/IntelXeonGold6230CPU@2.10GHz/Test_2021-06-27-21:28:28/1/p-BiCGStab-GKO-BJ-omp/airFoil2D
nProcs : 1
sigFpe : Enabling floating point exception trapping (FOAM_SIGFPE).
fileModificationChecking : Monitoring run-time modified files using timeStampMaster (fileModificationSkew 10)
allowSystemOperations : Allowing user-supplied system call operations

// * * * * * * * * * * * * * * * * * * * * * * * * * * * * * * * * * * * * * //
Create time

Create mesh for time = 0


SIMPLE: Convergence criteria found
        p: tolerance 1e-05
        U: tolerance 1e-05
        nuTilda: tolerance 1e-05

Reading field p

Reading field U

Reading/calculating face flux field phi

Selecting incompressible transport model Newtonian
Selecting turbulence model type RAS
Selecting RAS turbulence model SpalartAllmaras
Selecting patchDistMethod meshWave
RAS
{
    model           SpalartAllmaras;
    turbulence      on;
    printCoeffs     on;
    sigmaNut        0.66666;
    kappa           0.41;
    Cb1             0.1355;
    Cb2             0.622;
    Cw2             0.3;
    Cw3             2;
    Cv1             7.1;
    Cs              0.3;
}

No MRF models present

No finite volume options present

Starting time loop

Time = 1

smoothSolver:  Solving for Ux, Initial residual = 1, Final residual = 0.000531638, No Iterations 14
smoothSolver:  Solving for Uy, Initial residual = 1, Final residual = 0.000467931, No Iterations 14
Gingko init_host_sparsity_pattern : 8 ms
 matrix not stored update host matrix 
Gingko update_host_mtx : 4 ms
matrix is not yet sorted, compute sorting idxs 
 compute sorting idxs 214288
Gingko compute_sort : 226 ms
matrix is not yet sorted,  sorting host matrix 
Gingko sort_host_mtx_sparsity_pattern : 5 ms
Gingko sort_host_mtx : 3 ms
Gingko init_preconditioner : 2 ms
Gingko solve : 832 ms
 copy back
 get iters 
BJompGKOBiCGStab:  Solving for p, Initial residual = 0.00178455, Final residual = 0.00527344, No Iterations 499
time step continuity errors : sum local = 1.2108e-05, global = -6.23013e-06, cumulative = -6.23013e-06
smoothSolver:  Solving for nuTilda, Initial residual = 1, Final residual = 0.0317439, No Iterations 2
ExecutionTime = 7.29 s  ClockTime = 1 s

Time = 2

smoothSolver:  Solving for Ux, Initial residual = 0.556617, Final residual = 0.000506779, No Iterations 10
smoothSolver:  Solving for Uy, Initial residual = 0.585949, Final residual = 0.000526152, No Iterations 10
 found preconditioner 
Gingko init_preconditioner : 0 ms
Gingko solve : 891 ms
 copy back
 get iters 
BJompGKOBiCGStab:  Solving for p, Initial residual = 1, Final residual = 0.00043428, No Iterations 499
time step continuity errors : sum local = 0.00258788, global = 1.40964e-05, cumulative = 7.86622e-06
smoothSolver:  Solving for nuTilda, Initial residual = 0.057776, Final residual = 0.00183957, No Iterations 4
ExecutionTime = 14.49 s  ClockTime = 2 s

Time = 3

smoothSolver:  Solving for Ux, Initial residual = 0.169328, Final residual = 0.0001622, No Iterations 10
smoothSolver:  Solving for Uy, Initial residual = 0.133535, Final residual = 0.000122963, No Iterations 10
 found preconditioner 
Gingko init_preconditioner : 0 ms
Gingko solve : 880 ms
 copy back
 get iters 
BJompGKOBiCGStab:  Solving for p, Initial residual = 0.0740912, Final residual = 0.000273442, No Iterations 499
time step continuity errors : sum local = 0.00264289, global = 1.00308e-05, cumulative = 1.7897e-05
smoothSolver:  Solving for nuTilda, Initial residual = 0.0391403, Final residual = 0.00160968, No Iterations 4
ExecutionTime = 21.59 s  ClockTime = 3 s

Time = 4

smoothSolver:  Solving for Ux, Initial residual = 0.0672466, Final residual = 5.55586e-05, No Iterations 10
smoothSolver:  Solving for Uy, Initial residual = 0.0737919, Final residual = 6.27534e-05, No Iterations 10
 found preconditioner 
Gingko init_preconditioner : 0 ms
Gingko solve : 888 ms
 copy back
 get iters 
BJompGKOBiCGStab:  Solving for p, Initial residual = 0.0721936, Final residual = 8.47738e-05, No Iterations 499
time step continuity errors : sum local = 0.00319057, global = 2.4127e-06, cumulative = 2.03097e-05
smoothSolver:  Solving for nuTilda, Initial residual = 0.0475949, Final residual = 0.00193813, No Iterations 4
bounding nuTilda, min: -0.9216 max: 0.227291 average: 0.138914
ExecutionTime = 28.75 s  ClockTime = 4 s

Time = 5

smoothSolver:  Solving for Ux, Initial residual = 0.228805, Final residual = 9.6475e-05, No Iterations 16
smoothSolver:  Solving for Uy, Initial residual = 0.226395, Final residual = 0.0002037, No Iterations 14
 found preconditioner 
Gingko init_preconditioner : 0 ms
Gingko solve : 873 ms
 copy back
 get iters 
BJompGKOBiCGStab:  Solving for p, Initial residual = 0.181765, Final residual = 2.3385e-05, No Iterations 499
time step continuity errors : sum local = 2940.23, global = -6.02886e-06, cumulative = 1.42809e-05
smoothSolver:  Solving for nuTilda, Initial residual = 0.0301512, Final residual = 0.0027584, No Iterations 12
ExecutionTime = 35.79 s  ClockTime = 5 s

End

