/*---------------------------------------------------------------------------*\
  =========                 |
  \\      /  F ield         | OpenFOAM: The Open Source CFD Toolbox
   \\    /   O peration     | Website:  https://openfoam.org
    \\  /    A nd           | Version:  8
     \\/     M anipulation  |
\*---------------------------------------------------------------------------*/
Build  : 8-13d66902f78c
Exec   : simpleFoam
Date   : Jul 04 2021
Time   : 10:40:43
Host   : "uc2n553.localdomain"
PID    : 1788761
I/O    : uncollated
Case   : /pfs/data5/home/kit/scc/nq7776/code/OGL_DATA/airFoil2D/v0.1-136-g40fef35/f584ccac99/IntelXeonGold6230CPU@2.10GHz/Test_2021-07-04-10:40:08/0/p-CG-OF-DIC-reference/airFoil2D
nProcs : 1
sigFpe : Enabling floating point exception trapping (FOAM_SIGFPE).
fileModificationChecking : Monitoring run-time modified files using timeStampMaster (fileModificationSkew 10)
allowSystemOperations : Allowing user-supplied system call operations

// * * * * * * * * * * * * * * * * * * * * * * * * * * * * * * * * * * * * * //
Create time

Create mesh for time = 0


SIMPLE: Convergence criteria found
        p: tolerance 1e-05
        U: tolerance 1e-05
        nuTilda: tolerance 1e-05

Reading field p

Reading field U

Reading/calculating face flux field phi

Selecting incompressible transport model Newtonian
Selecting turbulence model type RAS
Selecting RAS turbulence model SpalartAllmaras
Selecting patchDistMethod meshWave
RAS
{
    model           SpalartAllmaras;
    turbulence      on;
    printCoeffs     on;
    sigmaNut        0.66666;
    kappa           0.41;
    Cb1             0.1355;
    Cb2             0.622;
    Cw2             0.3;
    Cw3             2;
    Cv1             7.1;
    Cs              0.3;
}

No MRF models present

No finite volume options present

Starting time loop

Time = 1

smoothSolver:  Solving for Ux, Initial residual = 1, Final residual = 0.000286765, No Iterations 6
smoothSolver:  Solving for Uy, Initial residual = 1, Final residual = 0.000266947, No Iterations 6
DICPCG:  Solving for p, Initial residual = 1, Final residual = 0.000896887, No Iterations 96
time step continuity errors : sum local = 2.933e-06, global = -4.38935e-08, cumulative = -4.38935e-08
smoothSolver:  Solving for nuTilda, Initial residual = 1, Final residual = 0.0471689, No Iterations 2
ExecutionTime = 0.14 s  ClockTime = 0 s

Time = 2

smoothSolver:  Solving for Ux, Initial residual = 0.427262, Final residual = 0.000365327, No Iterations 12
smoothSolver:  Solving for Uy, Initial residual = 0.575149, Final residual = 0.000496911, No Iterations 10
DICPCG:  Solving for p, Initial residual = 0.11606, Final residual = 0.000107197, No Iterations 86
time step continuity errors : sum local = 4.6462e-06, global = 1.26051e-07, cumulative = 8.21571e-08
smoothSolver:  Solving for nuTilda, Initial residual = 0.140369, Final residual = 0.010001, No Iterations 2
ExecutionTime = 0.16 s  ClockTime = 1 s

Time = 3

smoothSolver:  Solving for Ux, Initial residual = 0.149387, Final residual = 0.000122274, No Iterations 12
smoothSolver:  Solving for Uy, Initial residual = 0.15116, Final residual = 5.55084e-05, No Iterations 12
DICPCG:  Solving for p, Initial residual = 0.186345, Final residual = 0.000176549, No Iterations 95
time step continuity errors : sum local = 5.24537e-06, global = 2.93997e-07, cumulative = 3.76154e-07
smoothSolver:  Solving for nuTilda, Initial residual = 0.137395, Final residual = 0.0135736, No Iterations 2
ExecutionTime = 0.19 s  ClockTime = 1 s

Time = 4

smoothSolver:  Solving for Ux, Initial residual = 0.0452281, Final residual = 2.05812e-05, No Iterations 12
smoothSolver:  Solving for Uy, Initial residual = 0.0575367, Final residual = 2.28805e-05, No Iterations 12
DICPCG:  Solving for p, Initial residual = 0.248327, Final residual = 0.000229662, No Iterations 90
time step continuity errors : sum local = 3.90186e-06, global = 2.28678e-07, cumulative = 6.04832e-07
smoothSolver:  Solving for nuTilda, Initial residual = 0.175154, Final residual = 0.0048583, No Iterations 4
ExecutionTime = 0.21 s  ClockTime = 1 s

Time = 5

smoothSolver:  Solving for Ux, Initial residual = 0.119681, Final residual = 0.000105422, No Iterations 12
smoothSolver:  Solving for Uy, Initial residual = 0.156263, Final residual = 0.000133498, No Iterations 10
DICPCG:  Solving for p, Initial residual = 0.170063, Final residual = 0.000153593, No Iterations 82
time step continuity errors : sum local = 4.81457e-06, global = 2.18356e-07, cumulative = 8.23188e-07
smoothSolver:  Solving for nuTilda, Initial residual = 0.116735, Final residual = 0.00317155, No Iterations 4
ExecutionTime = 0.23 s  ClockTime = 1 s

End

