/*---------------------------------------------------------------------------*\
  =========                 |
  \\      /  F ield         | OpenFOAM: The Open Source CFD Toolbox
   \\    /   O peration     | Website:  https://openfoam.org
    \\  /    A nd           | Version:  8
     \\/     M anipulation  |
\*---------------------------------------------------------------------------*/
Build  : 8-13d66902f78c
Exec   : simpleFoam
Date   : Jul 04 2021
Time   : 09:37:42
Host   : "uc2n385.localdomain"
PID    : 3305122
I/O    : uncollated
Case   : /pfs/data5/home/kit/scc/nq7776/code/OGL_DATA/airFoil2D/v0.1-136-g40fef35/f584ccac99/IntelXeonGold6230CPU@2.10GHz/Test_2021-07-04-09:30:48/0/p-BiCGStab-GKO-none-omp/airFoil2D
nProcs : 1
sigFpe : Enabling floating point exception trapping (FOAM_SIGFPE).
fileModificationChecking : Monitoring run-time modified files using timeStampMaster (fileModificationSkew 10)
allowSystemOperations : Allowing user-supplied system call operations

// * * * * * * * * * * * * * * * * * * * * * * * * * * * * * * * * * * * * * //
Create time

Create mesh for time = 0


SIMPLE: Convergence criteria found
        p: tolerance 1e-05
        U: tolerance 1e-05
        nuTilda: tolerance 1e-05

Reading field p

Reading field U

Reading/calculating face flux field phi

Selecting incompressible transport model Newtonian
Selecting turbulence model type RAS
Selecting RAS turbulence model SpalartAllmaras
Selecting patchDistMethod meshWave
RAS
{
    model           SpalartAllmaras;
    turbulence      on;
    printCoeffs     on;
    sigmaNut        0.66666;
    kappa           0.41;
    Cb1             0.1355;
    Cb2             0.622;
    Cw2             0.3;
    Cw3             2;
    Cv1             7.1;
    Cs              0.3;
}

No MRF models present

No finite volume options present

Starting time loop

Time = 1

smoothSolver:  Solving for Ux, Initial residual = 1, Final residual = 0.000286765, No Iterations 6
smoothSolver:  Solving for Uy, Initial residual = 1, Final residual = 0.000266947, No Iterations 6
[OGL LOG] init_host_sparsity_pattern : 2 ms
[OGL LOG] matrix not stored update host matrix
[OGL LOG] update_host_mtx : 1 ms
[OGL LOG] matrix is not yet sorted, compute sorting idxs
[OGL LOG] compute_sort : 49 ms
[OGL LOG] matrix is not yet sorted, sorting host matrix
[OGL LOG] sort_host_mtx_sparsity_pattern : 1 ms
[OGL LOG] sort_host_mtx : 0 ms
[OGL LOG] init_preconditioner : 0 ms
[OGL LOG] solve : 747 ms
noneompGKOBiCGStab:  Solving for p, Initial residual = 1, Final residual = 0.0300021, No Iterations 1000
time step continuity errors : sum local = 9.81129e-05, global = -9.59104e-05, cumulative = -9.59104e-05
smoothSolver:  Solving for nuTilda, Initial residual = 1, Final residual = 0.047216, No Iterations 2
ExecutionTime = 48.97 s  ClockTime = 1 s

Time = 2

smoothSolver:  Solving for Ux, Initial residual = 0.426349, Final residual = 0.000339387, No Iterations 12
smoothSolver:  Solving for Uy, Initial residual = 0.572478, Final residual = 0.00049085, No Iterations 10
[OGL LOG] init_host_sparsity_pattern : 2 ms
[OGL LOG] matrix not stored update host matrix
[OGL LOG] update_host_mtx : 0 ms
[OGL LOG] matrix is not yet sorted, sorting host matrix
[OGL LOG] sort_host_mtx_sparsity_pattern : 1 ms
[OGL LOG] sort_host_mtx : 0 ms
[OGL LOG] init_preconditioner : 0 ms
[OGL LOG] solve : 751 ms
noneompGKOBiCGStab:  Solving for p, Initial residual = 0.23331, Final residual = 0.000779198, No Iterations 1000
time step continuity errors : sum local = 2.99017e-05, global = 2.05209e-05, cumulative = -7.53895e-05
smoothSolver:  Solving for nuTilda, Initial residual = 0.140632, Final residual = 0.00999157, No Iterations 2
ExecutionTime = 95.56 s  ClockTime = 2 s

Time = 3

smoothSolver:  Solving for Ux, Initial residual = 0.150607, Final residual = 0.000130216, No Iterations 12
smoothSolver:  Solving for Uy, Initial residual = 0.151294, Final residual = 5.49833e-05, No Iterations 12
[OGL LOG] init_host_sparsity_pattern : 2 ms
[OGL LOG] matrix not stored update host matrix
[OGL LOG] update_host_mtx : 0 ms
[OGL LOG] matrix is not yet sorted, sorting host matrix
[OGL LOG] sort_host_mtx_sparsity_pattern : 1 ms
[OGL LOG] sort_host_mtx : 0 ms
[OGL LOG] init_preconditioner : 0 ms
[OGL LOG] solve : 716 ms
noneompGKOBiCGStab:  Solving for p, Initial residual = 0.0996308, Final residual = 0.000354404, No Iterations 1000
time step continuity errors : sum local = 1.14327e-05, global = -3.11369e-06, cumulative = -7.85032e-05
smoothSolver:  Solving for nuTilda, Initial residual = 0.136953, Final residual = 0.0134909, No Iterations 2
ExecutionTime = 141.62 s  ClockTime = 2 s

Time = 4

smoothSolver:  Solving for Ux, Initial residual = 0.0415783, Final residual = 3.49821e-05, No Iterations 10
smoothSolver:  Solving for Uy, Initial residual = 0.0555158, Final residual = 2.01864e-05, No Iterations 12
[OGL LOG] init_host_sparsity_pattern : 2 ms
[OGL LOG] matrix not stored update host matrix
[OGL LOG] update_host_mtx : 0 ms
[OGL LOG] matrix is not yet sorted, sorting host matrix
[OGL LOG] sort_host_mtx_sparsity_pattern : 1 ms
[OGL LOG] sort_host_mtx : 0 ms
[OGL LOG] init_preconditioner : 0 ms
[OGL LOG] solve : 722 ms
noneompGKOBiCGStab:  Solving for p, Initial residual = 0.361625, Final residual = 0.000408019, No Iterations 1000
time step continuity errors : sum local = 5.34205e-06, global = -5.10071e-06, cumulative = -8.36039e-05
smoothSolver:  Solving for nuTilda, Initial residual = 0.174628, Final residual = 0.0048679, No Iterations 4
ExecutionTime = 188.09 s  ClockTime = 3 s

Time = 5

smoothSolver:  Solving for Ux, Initial residual = 0.119542, Final residual = 0.000103095, No Iterations 12
smoothSolver:  Solving for Uy, Initial residual = 0.156379, Final residual = 0.000131525, No Iterations 10
[OGL LOG] init_host_sparsity_pattern : 2 ms
[OGL LOG] matrix not stored update host matrix
[OGL LOG] update_host_mtx : 0 ms
[OGL LOG] matrix is not yet sorted, sorting host matrix
[OGL LOG] sort_host_mtx_sparsity_pattern : 1 ms
[OGL LOG] sort_host_mtx : 0 ms
[OGL LOG] init_preconditioner : 0 ms
[OGL LOG] solve : 719 ms
noneompGKOBiCGStab:  Solving for p, Initial residual = 0.150312, Final residual = 0.000732851, No Iterations 1000
time step continuity errors : sum local = 2.2217e-05, global = 4.33874e-06, cumulative = -7.92652e-05
smoothSolver:  Solving for nuTilda, Initial residual = 0.116438, Final residual = 0.00317512, No Iterations 4
ExecutionTime = 234.35 s  ClockTime = 4 s

End

