/*---------------------------------------------------------------------------*\
  =========                 |
  \\      /  F ield         | OpenFOAM: The Open Source CFD Toolbox
   \\    /   O peration     | Website:  https://openfoam.org
    \\  /    A nd           | Version:  8
     \\/     M anipulation  |
\*---------------------------------------------------------------------------*/
Build  : 8-13d66902f78c
Exec   : simpleFoam
Date   : Jul 04 2021
Time   : 10:59:03
Host   : "uc2n452.localdomain"
PID    : 2605949
I/O    : uncollated
Case   : /pfs/data5/home/kit/scc/nq7776/code/OGL_DATA/airFoil2D/v0.1-136-g40fef35/f584ccac99/IntelXeonGold6230CPU@2.10GHz/Test_2021-07-04-10:59:00/0/p-U-CG-OF-none-reference/airFoil2D
nProcs : 1
sigFpe : Enabling floating point exception trapping (FOAM_SIGFPE).
fileModificationChecking : Monitoring run-time modified files using timeStampMaster (fileModificationSkew 10)
allowSystemOperations : Allowing user-supplied system call operations

// * * * * * * * * * * * * * * * * * * * * * * * * * * * * * * * * * * * * * //
Create time

Create mesh for time = 0


SIMPLE: Convergence criteria found
        p: tolerance 1e-05
        U: tolerance 1e-05
        nuTilda: tolerance 1e-05

Reading field p

Reading field U

Reading/calculating face flux field phi

Selecting incompressible transport model Newtonian
Selecting turbulence model type RAS
Selecting RAS turbulence model SpalartAllmaras
Selecting patchDistMethod meshWave
RAS
{
    model           SpalartAllmaras;
    turbulence      on;
    printCoeffs     on;
    sigmaNut        0.66666;
    kappa           0.41;
    Cb1             0.1355;
    Cb2             0.622;
    Cw2             0.3;
    Cw3             2;
    Cv1             7.1;
    Cs              0.3;
}

No MRF models present

No finite volume options present

Starting time loop

Time = 1

nonePBiCGStab:  Solving for Ux, Initial residual = 1, Final residual = 0.000974357, No Iterations 108
nonePBiCGStab:  Solving for Uy, Initial residual = 1, Final residual = 0.000911218, No Iterations 108
nonePCG:  Solving for p, Initial residual = 1, Final residual = 0.280939, No Iterations 1000
time step continuity errors : sum local = 0.00091884, global = 1.5774e-05, cumulative = 1.5774e-05
smoothSolver:  Solving for nuTilda, Initial residual = 1, Final residual = 0.0471397, No Iterations 2
ExecutionTime = 0.23 s  ClockTime = 0 s

Time = 2

nonePBiCGStab:  Solving for Ux, Initial residual = 0.426453, Final residual = 0.000421013, No Iterations 154
nonePBiCGStab:  Solving for Uy, Initial residual = 0.57574, Final residual = 0.000572626, No Iterations 106
nonePCG:  Solving for p, Initial residual = 0.117225, Final residual = 0.00969873, No Iterations 1000
time step continuity errors : sum local = 0.000421779, global = -5.0199e-06, cumulative = 1.07541e-05
smoothSolver:  Solving for nuTilda, Initial residual = 0.140484, Final residual = 0.00997128, No Iterations 2
ExecutionTime = 0.37 s  ClockTime = 0 s

Time = 3

nonePBiCGStab:  Solving for Ux, Initial residual = 0.149235, Final residual = 0.000139635, No Iterations 147
nonePBiCGStab:  Solving for Uy, Initial residual = 0.151292, Final residual = 0.000142697, No Iterations 105
nonePCG:  Solving for p, Initial residual = 0.187838, Final residual = 0.0278121, No Iterations 1000
time step continuity errors : sum local = 0.00083258, global = -1.99017e-05, cumulative = -9.14767e-06
smoothSolver:  Solving for nuTilda, Initial residual = 0.135708, Final residual = 0.0134018, No Iterations 2
ExecutionTime = 0.49 s  ClockTime = 0 s

Time = 4

nonePBiCGStab:  Solving for Ux, Initial residual = 0.0430563, Final residual = 3.28639e-05, No Iterations 159
nonePBiCGStab:  Solving for Uy, Initial residual = 0.0563159, Final residual = 5.49137e-05, No Iterations 100
nonePCG:  Solving for p, Initial residual = 0.253582, Final residual = 0.020349, No Iterations 1000
time step continuity errors : sum local = 0.000349869, global = -1.99563e-06, cumulative = -1.11433e-05
smoothSolver:  Solving for nuTilda, Initial residual = 0.175515, Final residual = 0.00488671, No Iterations 4
ExecutionTime = 0.61 s  ClockTime = 0 s

Time = 5

nonePBiCGStab:  Solving for Ux, Initial residual = 0.120404, Final residual = 0.000111107, No Iterations 139
nonePBiCGStab:  Solving for Uy, Initial residual = 0.157346, Final residual = 0.000144606, No Iterations 113
nonePCG:  Solving for p, Initial residual = 0.170475, Final residual = 0.0107739, No Iterations 1000
time step continuity errors : sum local = 0.000341537, global = -2.98455e-08, cumulative = -1.11731e-05
smoothSolver:  Solving for nuTilda, Initial residual = 0.117529, Final residual = 0.00320834, No Iterations 4
ExecutionTime = 0.74 s  ClockTime = 0 s

End

