/*---------------------------------------------------------------------------*\
  =========                 |
  \\      /  F ield         | OpenFOAM: The Open Source CFD Toolbox
   \\    /   O peration     | Website:  https://openfoam.org
    \\  /    A nd           | Version:  8
     \\/     M anipulation  |
\*---------------------------------------------------------------------------*/
Build  : 8-13d66902f78c
Exec   : simpleFoam
Date   : Jul 05 2021
Time   : 12:42:09
Host   : "uc2n407.localdomain"
PID    : 3147739
I/O    : uncollated
Case   : /pfs/data5/home/kit/scc/nq7776/code/OGL_DATA/airFoil2D/v0.1-136-g40fef35/f584ccac99/IntelXeonGold6230CPU@2.10GHz/Test_2021-07-05-12:36:22/0/p-IR-GKO-none-omp/airFoil2D
nProcs : 1
sigFpe : Enabling floating point exception trapping (FOAM_SIGFPE).
fileModificationChecking : Monitoring run-time modified files using timeStampMaster (fileModificationSkew 10)
allowSystemOperations : Allowing user-supplied system call operations

// * * * * * * * * * * * * * * * * * * * * * * * * * * * * * * * * * * * * * //
Create time

Create mesh for time = 0


SIMPLE: Convergence criteria found
        p: tolerance 1e-05
        U: tolerance 1e-05
        nuTilda: tolerance 1e-05

Reading field p

Reading field U

Reading/calculating face flux field phi

Selecting incompressible transport model Newtonian
Selecting turbulence model type RAS
Selecting RAS turbulence model SpalartAllmaras
Selecting patchDistMethod meshWave
RAS
{
    model           SpalartAllmaras;
    turbulence      on;
    printCoeffs     on;
    sigmaNut        0.66666;
    kappa           0.41;
    Cb1             0.1355;
    Cb2             0.622;
    Cw2             0.3;
    Cw3             2;
    Cv1             7.1;
    Cs              0.3;
}

No MRF models present

No finite volume options present

Starting time loop

Time = 1

smoothSolver:  Solving for Ux, Initial residual = 1, Final residual = 0.000286765, No Iterations 6
smoothSolver:  Solving for Uy, Initial residual = 1, Final residual = 0.000266947, No Iterations 6
[OGL LOG] init_host_sparsity_pattern : 2 ms
[OGL LOG] matrix not stored update host matrix
[OGL LOG] update_host_mtx : 1 ms
[OGL LOG] matrix is not yet sorted, compute sorting idxs
[OGL LOG] compute_sort : 49 ms
[OGL LOG] matrix is not yet sorted, sorting host matrix
[OGL LOG] sort_host_mtx_sparsity_pattern : 1 ms
[OGL LOG] sort_host_mtx : 0 ms
[OGL LOG] init_preconditioner : 0 ms
[OGL LOG] solve : 534 ms
noneompGKOIR:  Solving for p, Initial residual = 1, Final residual = 0.000801473, No Iterations 2
time step continuity errors : sum local = 2.62098e-06, global = -2.73666e-07, cumulative = -2.73666e-07
smoothSolver:  Solving for nuTilda, Initial residual = 1, Final residual = 0.0471708, No Iterations 2
ExecutionTime = 17.63 s  ClockTime = 1 s

Time = 2

smoothSolver:  Solving for Ux, Initial residual = 0.427259, Final residual = 0.000365285, No Iterations 12
smoothSolver:  Solving for Uy, Initial residual = 0.575145, Final residual = 0.000496992, No Iterations 10
[OGL LOG] init_host_sparsity_pattern : 2 ms
[OGL LOG] matrix not stored update host matrix
[OGL LOG] update_host_mtx : 0 ms
[OGL LOG] matrix is not yet sorted, sorting host matrix
[OGL LOG] sort_host_mtx_sparsity_pattern : 1 ms
[OGL LOG] sort_host_mtx : 0 ms
[OGL LOG] init_preconditioner : 0 ms
[OGL LOG] solve : 535 ms
noneompGKOIR:  Solving for p, Initial residual = 0.206687, Final residual = 8.81724e-05, No Iterations 2
time step continuity errors : sum local = 3.82061e-06, global = 2.86984e-09, cumulative = -2.70796e-07
smoothSolver:  Solving for nuTilda, Initial residual = 0.140372, Final residual = 0.0100014, No Iterations 2
ExecutionTime = 34.89 s  ClockTime = 1 s

Time = 3

smoothSolver:  Solving for Ux, Initial residual = 0.149411, Final residual = 0.000122267, No Iterations 12
smoothSolver:  Solving for Uy, Initial residual = 0.15119, Final residual = 5.55297e-05, No Iterations 12
[OGL LOG] init_host_sparsity_pattern : 2 ms
[OGL LOG] matrix not stored update host matrix
[OGL LOG] update_host_mtx : 1 ms
[OGL LOG] matrix is not yet sorted, sorting host matrix
[OGL LOG] sort_host_mtx_sparsity_pattern : 1 ms
[OGL LOG] sort_host_mtx : 0 ms
[OGL LOG] init_preconditioner : 0 ms
[OGL LOG] solve : 465 ms
noneompGKOIR:  Solving for p, Initial residual = 0.105682, Final residual = 4.38342e-05, No Iterations 2
time step continuity errors : sum local = 1.3026e-06, global = 1.03762e-07, cumulative = -1.67035e-07
smoothSolver:  Solving for nuTilda, Initial residual = 0.137402, Final residual = 0.0135741, No Iterations 2
ExecutionTime = 49.89 s  ClockTime = 2 s

Time = 4

smoothSolver:  Solving for Ux, Initial residual = 0.0452117, Final residual = 2.05569e-05, No Iterations 12
smoothSolver:  Solving for Uy, Initial residual = 0.0575324, Final residual = 2.28678e-05, No Iterations 12
[OGL LOG] init_host_sparsity_pattern : 1 ms
[OGL LOG] matrix not stored update host matrix
[OGL LOG] update_host_mtx : 0 ms
[OGL LOG] matrix is not yet sorted, sorting host matrix
[OGL LOG] sort_host_mtx_sparsity_pattern : 1 ms
[OGL LOG] sort_host_mtx : 0 ms
[OGL LOG] init_preconditioner : 0 ms
[OGL LOG] solve : 498 ms
noneompGKOIR:  Solving for p, Initial residual = 0.279803, Final residual = 7.43962e-05, No Iterations 2
time step continuity errors : sum local = 1.26299e-06, global = 2.91152e-09, cumulative = -1.64123e-07
smoothSolver:  Solving for nuTilda, Initial residual = 0.175152, Final residual = 0.00485825, No Iterations 4
ExecutionTime = 66.02 s  ClockTime = 2 s

Time = 5

smoothSolver:  Solving for Ux, Initial residual = 0.119681, Final residual = 0.000105406, No Iterations 12
smoothSolver:  Solving for Uy, Initial residual = 0.156313, Final residual = 0.000133598, No Iterations 10
[OGL LOG] init_host_sparsity_pattern : 2 ms
[OGL LOG] matrix not stored update host matrix
[OGL LOG] update_host_mtx : 0 ms
[OGL LOG] matrix is not yet sorted, sorting host matrix
[OGL LOG] sort_host_mtx_sparsity_pattern : 1 ms
[OGL LOG] sort_host_mtx : 0 ms
[OGL LOG] init_preconditioner : 0 ms
[OGL LOG] solve : 499 ms
noneompGKOIR:  Solving for p, Initial residual = 0.145605, Final residual = 4.15208e-05, No Iterations 2
time step continuity errors : sum local = 1.30144e-06, global = -6.76746e-08, cumulative = -2.31798e-07
smoothSolver:  Solving for nuTilda, Initial residual = 0.116737, Final residual = 0.00317145, No Iterations 4
ExecutionTime = 82.11 s  ClockTime = 3 s

End

