/*---------------------------------------------------------------------------*\
  =========                 |
  \\      /  F ield         | OpenFOAM: The Open Source CFD Toolbox
   \\    /   O peration     | Website:  https://openfoam.org
    \\  /    A nd           | Version:  8
     \\/     M anipulation  |
\*---------------------------------------------------------------------------*/
Build  : 8-13d66902f78c
Exec   : simpleFoam
Date   : Jul 04 2021
Time   : 10:25:46
Host   : "uc2n420.localdomain"
PID    : 1139652
I/O    : uncollated
Case   : /pfs/data5/home/kit/scc/nq7776/code/OGL_DATA/airFoil2D/v0.1-136-g40fef35/f584ccac99/IntelXeonGold6230CPU@2.10GHz/Test_2021-07-04-10:19:03/0/p-U-BiCGStab-GKO-none-omp/airFoil2D
nProcs : 1
sigFpe : Enabling floating point exception trapping (FOAM_SIGFPE).
fileModificationChecking : Monitoring run-time modified files using timeStampMaster (fileModificationSkew 10)
allowSystemOperations : Allowing user-supplied system call operations

// * * * * * * * * * * * * * * * * * * * * * * * * * * * * * * * * * * * * * //
Create time

Create mesh for time = 0


SIMPLE: Convergence criteria found
        p: tolerance 1e-05
        U: tolerance 1e-05
        nuTilda: tolerance 1e-05

Reading field p

Reading field U

Reading/calculating face flux field phi

Selecting incompressible transport model Newtonian
Selecting turbulence model type RAS
Selecting RAS turbulence model SpalartAllmaras
Selecting patchDistMethod meshWave
RAS
{
    model           SpalartAllmaras;
    turbulence      on;
    printCoeffs     on;
    sigmaNut        0.66666;
    kappa           0.41;
    Cb1             0.1355;
    Cb2             0.622;
    Cw2             0.3;
    Cw3             2;
    Cv1             7.1;
    Cs              0.3;
}

No MRF models present

No finite volume options present

Starting time loop

Time = 1

[OGL LOG] init_host_sparsity_pattern : 2 ms
[OGL LOG] matrix not stored update host matrix
[OGL LOG] update_host_mtx : 1 ms
[OGL LOG] matrix is not yet sorted, compute sorting idxs
[OGL LOG] compute_sort : 49 ms
[OGL LOG] matrix is not yet sorted, sorting host matrix
[OGL LOG] sort_host_mtx_sparsity_pattern : 1 ms
[OGL LOG] sort_host_mtx : 0 ms
[OGL LOG] init_preconditioner : 0 ms
[OGL LOG] solve : 63 ms
noneompGKOBiCGStab:  Solving for Ux, Initial residual = 132.217, Final residual = 0.129026, No Iterations 72
[OGL LOG] init_host_sparsity_pattern : 2 ms
[OGL LOG] matrix not stored update host matrix
[OGL LOG] update_host_mtx : 1 ms
[OGL LOG] matrix is not yet sorted, sorting host matrix
[OGL LOG] sort_host_mtx_sparsity_pattern : 1 ms
[OGL LOG] sort_host_mtx : 0 ms
[OGL LOG] init_preconditioner : 0 ms
[OGL LOG] solve : 54 ms
noneompGKOBiCGStab:  Solving for Uy, Initial residual = 133.871, Final residual = 0.122326, No Iterations 76
[OGL LOG] init_host_sparsity_pattern : 2 ms
[OGL LOG] matrix not stored update host matrix
[OGL LOG] update_host_mtx : 1 ms
[OGL LOG] matrix is not yet sorted, sorting host matrix
[OGL LOG] sort_host_mtx_sparsity_pattern : 1 ms
[OGL LOG] sort_host_mtx : 0 ms
[OGL LOG] init_preconditioner : 0 ms
[OGL LOG] solve : 700 ms
noneompGKOBiCGStab:  Solving for p, Initial residual = 1, Final residual = 0.000734994, No Iterations 976
time step continuity errors : sum local = 0.00147465, global = -0.000216911, cumulative = -0.000216911
smoothSolver:  Solving for nuTilda, Initial residual = 1, Final residual = 0.0728037, No Iterations 2
ExecutionTime = 53.86 s  ClockTime = 1 s

Time = 2

[OGL LOG] init_host_sparsity_pattern : 1 ms
[OGL LOG] matrix not stored update host matrix
[OGL LOG] update_host_mtx : 0 ms
[OGL LOG] matrix is not yet sorted, sorting host matrix
[OGL LOG] sort_host_mtx_sparsity_pattern : 1 ms
[OGL LOG] sort_host_mtx : 0 ms
[OGL LOG] init_preconditioner : 0 ms
[OGL LOG] solve : 81 ms
noneompGKOBiCGStab:  Solving for Ux, Initial residual = 0.511003, Final residual = 0.000484181, No Iterations 114
[OGL LOG] init_host_sparsity_pattern : 2 ms
[OGL LOG] matrix not stored update host matrix
[OGL LOG] update_host_mtx : 1 ms
[OGL LOG] matrix is not yet sorted, sorting host matrix
[OGL LOG] sort_host_mtx_sparsity_pattern : 1 ms
[OGL LOG] sort_host_mtx : 0 ms
[OGL LOG] init_preconditioner : 0 ms
[OGL LOG] solve : 94 ms
noneompGKOBiCGStab:  Solving for Uy, Initial residual = 0.702756, Final residual = 0.000525557, No Iterations 116
[OGL LOG] init_host_sparsity_pattern : 2 ms
[OGL LOG] matrix not stored update host matrix
[OGL LOG] update_host_mtx : 1 ms
[OGL LOG] matrix is not yet sorted, sorting host matrix
[OGL LOG] sort_host_mtx_sparsity_pattern : 1 ms
[OGL LOG] sort_host_mtx : 0 ms
[OGL LOG] init_preconditioner : 0 ms
[OGL LOG] solve : 711 ms
noneompGKOBiCGStab:  Solving for p, Initial residual = 0.339165, Final residual = 0.00114646, No Iterations 1000
time step continuity errors : sum local = 0.000137145, global = 0.00012185, cumulative = -9.50608e-05
smoothSolver:  Solving for nuTilda, Initial residual = 0.38391, Final residual = 0.0311847, No Iterations 2
ExecutionTime = 111.64 s  ClockTime = 2 s

Time = 3

[OGL LOG] init_host_sparsity_pattern : 1 ms
[OGL LOG] matrix not stored update host matrix
[OGL LOG] update_host_mtx : 1 ms
[OGL LOG] matrix is not yet sorted, sorting host matrix
[OGL LOG] sort_host_mtx_sparsity_pattern : 1 ms
[OGL LOG] sort_host_mtx : 0 ms
[OGL LOG] init_preconditioner : 0 ms
[OGL LOG] solve : 68 ms
noneompGKOBiCGStab:  Solving for Ux, Initial residual = 0.288748, Final residual = 0.000286003, No Iterations 98
[OGL LOG] init_host_sparsity_pattern : 2 ms
[OGL LOG] matrix not stored update host matrix
[OGL LOG] update_host_mtx : 1 ms
[OGL LOG] matrix is not yet sorted, sorting host matrix
[OGL LOG] sort_host_mtx_sparsity_pattern : 1 ms
[OGL LOG] sort_host_mtx : 0 ms
[OGL LOG] init_preconditioner : 0 ms
[OGL LOG] solve : 69 ms
noneompGKOBiCGStab:  Solving for Uy, Initial residual = 0.262697, Final residual = 0.000261239, No Iterations 100
[OGL LOG] init_host_sparsity_pattern : 2 ms
[OGL LOG] matrix not stored update host matrix
[OGL LOG] update_host_mtx : 1 ms
[OGL LOG] matrix is not yet sorted, sorting host matrix
[OGL LOG] sort_host_mtx_sparsity_pattern : 1 ms
[OGL LOG] sort_host_mtx : 0 ms
[OGL LOG] init_preconditioner : 0 ms
[OGL LOG] solve : 712 ms
noneompGKOBiCGStab:  Solving for p, Initial residual = 0.186664, Final residual = 0.00111456, No Iterations 1000
time step continuity errors : sum local = 0.000183524, global = 0.000156949, cumulative = 6.18882e-05
smoothSolver:  Solving for nuTilda, Initial residual = 0.254676, Final residual = 0.00819475, No Iterations 4
ExecutionTime = 166.99 s  ClockTime = 3 s

Time = 4

[OGL LOG] init_host_sparsity_pattern : 1 ms
[OGL LOG] matrix not stored update host matrix
[OGL LOG] update_host_mtx : 0 ms
[OGL LOG] matrix is not yet sorted, sorting host matrix
[OGL LOG] sort_host_mtx_sparsity_pattern : 1 ms
[OGL LOG] sort_host_mtx : 0 ms
[OGL LOG] init_preconditioner : 0 ms
[OGL LOG] solve : 76 ms
noneompGKOBiCGStab:  Solving for Ux, Initial residual = 0.211535, Final residual = 0.000210323, No Iterations 101
[OGL LOG] init_host_sparsity_pattern : 3 ms
[OGL LOG] matrix not stored update host matrix
[OGL LOG] update_host_mtx : 1 ms
[OGL LOG] matrix is not yet sorted, sorting host matrix
[OGL LOG] sort_host_mtx_sparsity_pattern : 1 ms
[OGL LOG] sort_host_mtx : 0 ms
[OGL LOG] init_preconditioner : 0 ms
[OGL LOG] solve : 80 ms
noneompGKOBiCGStab:  Solving for Uy, Initial residual = 0.163655, Final residual = 0.000159691, No Iterations 107
[OGL LOG] init_host_sparsity_pattern : 3 ms
[OGL LOG] matrix not stored update host matrix
[OGL LOG] update_host_mtx : 1 ms
[OGL LOG] matrix is not yet sorted, sorting host matrix
[OGL LOG] sort_host_mtx_sparsity_pattern : 1 ms
[OGL LOG] sort_host_mtx : 0 ms
[OGL LOG] init_preconditioner : 0 ms
[OGL LOG] solve : 800 ms
noneompGKOBiCGStab:  Solving for p, Initial residual = 0.223856, Final residual = 0.000328201, No Iterations 1000
time step continuity errors : sum local = 4.16747e-05, global = 9.22572e-06, cumulative = 7.11139e-05
smoothSolver:  Solving for nuTilda, Initial residual = 0.195203, Final residual = 0.0194874, No Iterations 2
ExecutionTime = 229.19 s  ClockTime = 4 s

Time = 5

[OGL LOG] init_host_sparsity_pattern : 1 ms
[OGL LOG] matrix not stored update host matrix
[OGL LOG] update_host_mtx : 0 ms
[OGL LOG] matrix is not yet sorted, sorting host matrix
[OGL LOG] sort_host_mtx_sparsity_pattern : 1 ms
[OGL LOG] sort_host_mtx : 0 ms
[OGL LOG] init_preconditioner : 0 ms
[OGL LOG] solve : 89 ms
noneompGKOBiCGStab:  Solving for Ux, Initial residual = 0.208433, Final residual = 0.000204269, No Iterations 118
[OGL LOG] init_host_sparsity_pattern : 3 ms
[OGL LOG] matrix not stored update host matrix
[OGL LOG] update_host_mtx : 1 ms
[OGL LOG] matrix is not yet sorted, sorting host matrix
[OGL LOG] sort_host_mtx_sparsity_pattern : 1 ms
[OGL LOG] sort_host_mtx : 0 ms
[OGL LOG] init_preconditioner : 0 ms
[OGL LOG] solve : 97 ms
noneompGKOBiCGStab:  Solving for Uy, Initial residual = 0.127595, Final residual = 0.000120006, No Iterations 128
[OGL LOG] init_host_sparsity_pattern : 3 ms
[OGL LOG] matrix not stored update host matrix
[OGL LOG] update_host_mtx : 1 ms
[OGL LOG] matrix is not yet sorted, sorting host matrix
[OGL LOG] sort_host_mtx_sparsity_pattern : 1 ms
[OGL LOG] sort_host_mtx : 0 ms
[OGL LOG] init_preconditioner : 0 ms
[OGL LOG] solve : 781 ms
noneompGKOBiCGStab:  Solving for p, Initial residual = 0.266684, Final residual = 0.00361686, No Iterations 1000
time step continuity errors : sum local = 0.00035392, global = -0.000353032, cumulative = -0.000281918
smoothSolver:  Solving for nuTilda, Initial residual = 0.173669, Final residual = 0.0171185, No Iterations 2
ExecutionTime = 292.1 s  ClockTime = 5 s

End

