/*---------------------------------------------------------------------------*\
  =========                 |
  \\      /  F ield         | OpenFOAM: The Open Source CFD Toolbox
   \\    /   O peration     | Website:  https://openfoam.org
    \\  /    A nd           | Version:  8
     \\/     M anipulation  |
\*---------------------------------------------------------------------------*/
Build  : 8-13d66902f78c
Exec   : simpleFoam
Date   : Jul 04 2021
Time   : 10:23:17
Host   : "uc2n449.localdomain"
PID    : 2074105
I/O    : uncollated
Case   : /pfs/data5/home/kit/scc/nq7776/code/OGL_DATA/airFoil2D/v0.1-136-g40fef35/f584ccac99/IntelXeonGold6230CPU@2.10GHz/Test_2021-07-04-10:23:01/0/p-U-CG-GKO-BJ-omp/airFoil2D
nProcs : 1
sigFpe : Enabling floating point exception trapping (FOAM_SIGFPE).
fileModificationChecking : Monitoring run-time modified files using timeStampMaster (fileModificationSkew 10)
allowSystemOperations : Allowing user-supplied system call operations

// * * * * * * * * * * * * * * * * * * * * * * * * * * * * * * * * * * * * * //
Create time

Create mesh for time = 0


SIMPLE: Convergence criteria found
        p: tolerance 1e-05
        U: tolerance 1e-05
        nuTilda: tolerance 1e-05

Reading field p

Reading field U

Reading/calculating face flux field phi

Selecting incompressible transport model Newtonian
Selecting turbulence model type RAS
Selecting RAS turbulence model SpalartAllmaras
Selecting patchDistMethod meshWave
RAS
{
    model           SpalartAllmaras;
    turbulence      on;
    printCoeffs     on;
    sigmaNut        0.66666;
    kappa           0.41;
    Cb1             0.1355;
    Cb2             0.622;
    Cw2             0.3;
    Cw3             2;
    Cv1             7.1;
    Cs              0.3;
}

No MRF models present

No finite volume options present

Starting time loop

Time = 1

[OGL LOG] init_host_sparsity_pattern : 2 ms
[OGL LOG] matrix not stored update host matrix
[OGL LOG] update_host_mtx : 1 ms
[OGL LOG] matrix is not yet sorted, compute sorting idxs
[OGL LOG] compute_sort : 49 ms
[OGL LOG] matrix is not yet sorted, sorting host matrix
[OGL LOG] sort_host_mtx_sparsity_pattern : 1 ms
[OGL LOG] sort_host_mtx : 0 ms
[OGL LOG] init_preconditioner : 3 ms
[OGL LOG] solve : 17 ms
BJompGKOBiCGStab:  Solving for Ux, Initial residual = 132.217, Final residual = 0.105345, No Iterations 9
[OGL LOG] init_host_sparsity_pattern : 2 ms
[OGL LOG] matrix not stored update host matrix
[OGL LOG] update_host_mtx : 1 ms
[OGL LOG] matrix is not yet sorted, sorting host matrix
[OGL LOG] sort_host_mtx_sparsity_pattern : 1 ms
[OGL LOG] sort_host_mtx : 0 ms
[OGL LOG] init_preconditioner : 2 ms
[OGL LOG] solve : 16 ms
BJompGKOBiCGStab:  Solving for Uy, Initial residual = 133.871, Final residual = 0.10664, No Iterations 9
[OGL LOG] init_host_sparsity_pattern : 2 ms
[OGL LOG] matrix not stored update host matrix
[OGL LOG] update_host_mtx : 0 ms
[OGL LOG] matrix is not yet sorted, sorting host matrix
[OGL LOG] sort_host_mtx_sparsity_pattern : 1 ms
[OGL LOG] sort_host_mtx : 0 ms
[OGL LOG] init_preconditioner : 2 ms
 CG create  precond 
[OGL LOG] solve : 216 ms
BJompGKOCG:  Solving for p, Initial residual = 1, Final residual = 0.000987678, No Iterations 245
time step continuity errors : sum local = 6.32577e-05, global = -7.62987e-07, cumulative = -7.62987e-07
smoothSolver:  Solving for nuTilda, Initial residual = 1, Final residual = 0.0719971, No Iterations 2
ExecutionTime = 0.45 s  ClockTime = 0 s

Time = 2

[OGL LOG] init_host_sparsity_pattern : 1 ms
[OGL LOG] matrix not stored update host matrix
[OGL LOG] update_host_mtx : 0 ms
[OGL LOG] matrix is not yet sorted, sorting host matrix
[OGL LOG] sort_host_mtx_sparsity_pattern : 1 ms
[OGL LOG] sort_host_mtx : 0 ms
[OGL LOG] init_preconditioner : 0 ms
[OGL LOG] solve : 18 ms
BJompGKOBiCGStab:  Solving for Ux, Initial residual = 0.505616, Final residual = 0.000246746, No Iterations 10
[OGL LOG] init_host_sparsity_pattern : 1 ms
[OGL LOG] matrix not stored update host matrix
[OGL LOG] update_host_mtx : 0 ms
[OGL LOG] matrix is not yet sorted, sorting host matrix
[OGL LOG] sort_host_mtx_sparsity_pattern : 1 ms
[OGL LOG] sort_host_mtx : 0 ms
[OGL LOG] init_preconditioner : 0 ms
[OGL LOG] solve : 18 ms
BJompGKOBiCGStab:  Solving for Uy, Initial residual = 0.70463, Final residual = 0.00062956, No Iterations 10
[OGL LOG] init_host_sparsity_pattern : 2 ms
[OGL LOG] matrix not stored update host matrix
[OGL LOG] update_host_mtx : 0 ms
[OGL LOG] matrix is not yet sorted, sorting host matrix
[OGL LOG] sort_host_mtx_sparsity_pattern : 1 ms
[OGL LOG] sort_host_mtx : 0 ms
[OGL LOG] init_preconditioner : 0 ms
 CG create  precond 
[OGL LOG] solve : 340 ms
BJompGKOCG:  Solving for p, Initial residual = 0.29588, Final residual = 0.000286761, No Iterations 385
time step continuity errors : sum local = 3.71637e-05, global = -1.14619e-06, cumulative = -1.90917e-06
smoothSolver:  Solving for nuTilda, Initial residual = 0.383446, Final residual = 0.0320791, No Iterations 2
ExecutionTime = 0.86 s  ClockTime = 1 s

Time = 3

[OGL LOG] init_host_sparsity_pattern : 1 ms
[OGL LOG] matrix not stored update host matrix
[OGL LOG] update_host_mtx : 0 ms
[OGL LOG] matrix is not yet sorted, sorting host matrix
[OGL LOG] sort_host_mtx_sparsity_pattern : 1 ms
[OGL LOG] sort_host_mtx : 0 ms
[OGL LOG] init_preconditioner : 0 ms
[OGL LOG] solve : 17 ms
BJompGKOBiCGStab:  Solving for Ux, Initial residual = 0.28283, Final residual = 0.000220104, No Iterations 9
[OGL LOG] init_host_sparsity_pattern : 1 ms
[OGL LOG] matrix not stored update host matrix
[OGL LOG] update_host_mtx : 0 ms
[OGL LOG] matrix is not yet sorted, sorting host matrix
[OGL LOG] sort_host_mtx_sparsity_pattern : 1 ms
[OGL LOG] sort_host_mtx : 0 ms
[OGL LOG] init_preconditioner : 0 ms
[OGL LOG] solve : 15 ms
BJompGKOBiCGStab:  Solving for Uy, Initial residual = 0.248161, Final residual = 0.000182407, No Iterations 8
[OGL LOG] init_host_sparsity_pattern : 2 ms
[OGL LOG] matrix not stored update host matrix
[OGL LOG] update_host_mtx : 1 ms
[OGL LOG] matrix is not yet sorted, sorting host matrix
[OGL LOG] sort_host_mtx_sparsity_pattern : 1 ms
[OGL LOG] sort_host_mtx : 0 ms
[OGL LOG] init_preconditioner : 0 ms
 CG create  precond 
[OGL LOG] solve : 342 ms
BJompGKOCG:  Solving for p, Initial residual = 0.196479, Final residual = 0.000189043, No Iterations 388
time step continuity errors : sum local = 2.88768e-05, global = 2.18517e-08, cumulative = -1.88732e-06
smoothSolver:  Solving for nuTilda, Initial residual = 0.248079, Final residual = 0.00828162, No Iterations 4
ExecutionTime = 1.25 s  ClockTime = 1 s

Time = 4

[OGL LOG] init_host_sparsity_pattern : 1 ms
[OGL LOG] matrix not stored update host matrix
[OGL LOG] update_host_mtx : 0 ms
[OGL LOG] matrix is not yet sorted, sorting host matrix
[OGL LOG] sort_host_mtx_sparsity_pattern : 1 ms
[OGL LOG] sort_host_mtx : 0 ms
[OGL LOG] init_preconditioner : 0 ms
[OGL LOG] solve : 16 ms
BJompGKOBiCGStab:  Solving for Ux, Initial residual = 0.212317, Final residual = 0.000177458, No Iterations 9
[OGL LOG] init_host_sparsity_pattern : 2 ms
[OGL LOG] matrix not stored update host matrix
[OGL LOG] update_host_mtx : 1 ms
[OGL LOG] matrix is not yet sorted, sorting host matrix
[OGL LOG] sort_host_mtx_sparsity_pattern : 1 ms
[OGL LOG] sort_host_mtx : 0 ms
[OGL LOG] init_preconditioner : 0 ms
[OGL LOG] solve : 19 ms
BJompGKOBiCGStab:  Solving for Uy, Initial residual = 0.15282, Final residual = 0.000117335, No Iterations 10
[OGL LOG] init_host_sparsity_pattern : 2 ms
[OGL LOG] matrix not stored update host matrix
[OGL LOG] update_host_mtx : 0 ms
[OGL LOG] matrix is not yet sorted, sorting host matrix
[OGL LOG] sort_host_mtx_sparsity_pattern : 1 ms
[OGL LOG] sort_host_mtx : 0 ms
[OGL LOG] init_preconditioner : 0 ms
 CG create  precond 
[OGL LOG] solve : 294 ms
BJompGKOCG:  Solving for p, Initial residual = 0.259803, Final residual = 0.000251455, No Iterations 333
time step continuity errors : sum local = 2.69869e-05, global = -2.54445e-06, cumulative = -4.43177e-06
smoothSolver:  Solving for nuTilda, Initial residual = 0.191119, Final residual = 0.00637089, No Iterations 4
ExecutionTime = 1.61 s  ClockTime = 1 s

Time = 5

[OGL LOG] init_host_sparsity_pattern : 1 ms
[OGL LOG] matrix not stored update host matrix
[OGL LOG] update_host_mtx : 0 ms
[OGL LOG] matrix is not yet sorted, sorting host matrix
[OGL LOG] sort_host_mtx_sparsity_pattern : 1 ms
[OGL LOG] sort_host_mtx : 0 ms
[OGL LOG] init_preconditioner : 0 ms
[OGL LOG] solve : 17 ms
BJompGKOBiCGStab:  Solving for Ux, Initial residual = 0.203149, Final residual = 0.000182743, No Iterations 9
[OGL LOG] init_host_sparsity_pattern : 1 ms
[OGL LOG] matrix not stored update host matrix
[OGL LOG] update_host_mtx : 0 ms
[OGL LOG] matrix is not yet sorted, sorting host matrix
[OGL LOG] sort_host_mtx_sparsity_pattern : 1 ms
[OGL LOG] sort_host_mtx : 0 ms
[OGL LOG] init_preconditioner : 0 ms
[OGL LOG] solve : 15 ms
BJompGKOBiCGStab:  Solving for Uy, Initial residual = 0.129459, Final residual = 0.000115482, No Iterations 8
[OGL LOG] init_host_sparsity_pattern : 2 ms
[OGL LOG] matrix not stored update host matrix
[OGL LOG] update_host_mtx : 0 ms
[OGL LOG] matrix is not yet sorted, sorting host matrix
[OGL LOG] sort_host_mtx_sparsity_pattern : 1 ms
[OGL LOG] sort_host_mtx : 0 ms
[OGL LOG] init_preconditioner : 0 ms
 CG create  precond 
[OGL LOG] solve : 324 ms
BJompGKOCG:  Solving for p, Initial residual = 0.264089, Final residual = 0.000262454, No Iterations 367
time step continuity errors : sum local = 2.5366e-05, global = 5.0518e-07, cumulative = -3.92659e-06
smoothSolver:  Solving for nuTilda, Initial residual = 0.168463, Final residual = 0.0168395, No Iterations 2
ExecutionTime = 1.98 s  ClockTime = 2 s

End

