/*---------------------------------------------------------------------------*\
  =========                 |
  \\      /  F ield         | OpenFOAM: The Open Source CFD Toolbox
   \\    /   O peration     | Website:  https://openfoam.org
    \\  /    A nd           | Version:  8
     \\/     M anipulation  |
\*---------------------------------------------------------------------------*/
Build  : 8-13d66902f78c
Exec   : simpleFoam
Date   : Jul 04 2021
Time   : 09:40:18
Host   : "uc2n430.localdomain"
PID    : 2461575
I/O    : uncollated
Case   : /pfs/data5/home/kit/scc/nq7776/code/OGL_DATA/airFoil2D/v0.1-136-g40fef35/f584ccac99/IntelXeonGold6230CPU@2.10GHz/Test_2021-07-04-09:37:33/0/p-BiCGStab-GKO-BJ-omp/airFoil2D
nProcs : 1
sigFpe : Enabling floating point exception trapping (FOAM_SIGFPE).
fileModificationChecking : Monitoring run-time modified files using timeStampMaster (fileModificationSkew 10)
allowSystemOperations : Allowing user-supplied system call operations

// * * * * * * * * * * * * * * * * * * * * * * * * * * * * * * * * * * * * * //
Create time

Create mesh for time = 0


SIMPLE: Convergence criteria found
        p: tolerance 1e-05
        U: tolerance 1e-05
        nuTilda: tolerance 1e-05

Reading field p

Reading field U

Reading/calculating face flux field phi

Selecting incompressible transport model Newtonian
Selecting turbulence model type RAS
Selecting RAS turbulence model SpalartAllmaras
Selecting patchDistMethod meshWave
RAS
{
    model           SpalartAllmaras;
    turbulence      on;
    printCoeffs     on;
    sigmaNut        0.66666;
    kappa           0.41;
    Cb1             0.1355;
    Cb2             0.622;
    Cw2             0.3;
    Cw3             2;
    Cv1             7.1;
    Cs              0.3;
}

No MRF models present

No finite volume options present

Starting time loop

Time = 1

smoothSolver:  Solving for Ux, Initial residual = 1, Final residual = 0.000286765, No Iterations 6
smoothSolver:  Solving for Uy, Initial residual = 1, Final residual = 0.000266947, No Iterations 6
[OGL LOG] init_host_sparsity_pattern : 2 ms
[OGL LOG] matrix not stored update host matrix
[OGL LOG] update_host_mtx : 1 ms
[OGL LOG] matrix is not yet sorted, compute sorting idxs
[OGL LOG] compute_sort : 49 ms
[OGL LOG] matrix is not yet sorted, sorting host matrix
[OGL LOG] sort_host_mtx_sparsity_pattern : 1 ms
[OGL LOG] sort_host_mtx : 0 ms
[OGL LOG] init_preconditioner : 1 ms
[OGL LOG] solve : 115 ms
BJompGKOBiCGStab:  Solving for p, Initial residual = 1, Final residual = 0.000634535, No Iterations 182
time step continuity errors : sum local = 2.07506e-06, global = -5.22066e-07, cumulative = -5.22066e-07
smoothSolver:  Solving for nuTilda, Initial residual = 1, Final residual = 0.0471723, No Iterations 2
ExecutionTime = 0.67 s  ClockTime = 1 s

Time = 2

smoothSolver:  Solving for Ux, Initial residual = 0.427284, Final residual = 0.000365383, No Iterations 12
smoothSolver:  Solving for Uy, Initial residual = 0.575113, Final residual = 0.000496996, No Iterations 10
[OGL LOG] init_host_sparsity_pattern : 1 ms
[OGL LOG] matrix not stored update host matrix
[OGL LOG] update_host_mtx : 0 ms
[OGL LOG] matrix is not yet sorted, sorting host matrix
[OGL LOG] sort_host_mtx_sparsity_pattern : 1 ms
[OGL LOG] sort_host_mtx : 0 ms
[OGL LOG] init_preconditioner : 0 ms
[OGL LOG] solve : 173 ms
BJompGKOBiCGStab:  Solving for p, Initial residual = 0.20672, Final residual = 0.000157476, No Iterations 276
time step continuity errors : sum local = 6.82269e-06, global = 4.82305e-06, cumulative = 4.30099e-06
smoothSolver:  Solving for nuTilda, Initial residual = 0.140383, Final residual = 0.0100039, No Iterations 2
ExecutionTime = 1.39 s  ClockTime = 1 s

Time = 3

smoothSolver:  Solving for Ux, Initial residual = 0.149615, Final residual = 0.000122714, No Iterations 12
smoothSolver:  Solving for Uy, Initial residual = 0.151486, Final residual = 5.57273e-05, No Iterations 12
[OGL LOG] init_host_sparsity_pattern : 1 ms
[OGL LOG] matrix not stored update host matrix
[OGL LOG] update_host_mtx : 0 ms
[OGL LOG] matrix is not yet sorted, sorting host matrix
[OGL LOG] sort_host_mtx_sparsity_pattern : 1 ms
[OGL LOG] sort_host_mtx : 0 ms
[OGL LOG] init_preconditioner : 0 ms
[OGL LOG] solve : 216 ms
BJompGKOBiCGStab:  Solving for p, Initial residual = 0.105057, Final residual = 8.63911e-05, No Iterations 308
time step continuity errors : sum local = 3.41592e-05, global = -9.15613e-06, cumulative = -4.85514e-06
smoothSolver:  Solving for nuTilda, Initial residual = 0.13738, Final residual = 0.01357, No Iterations 2
ExecutionTime = 2.29 s  ClockTime = 1 s

Time = 4

smoothSolver:  Solving for Ux, Initial residual = 0.0451715, Final residual = 2.09848e-05, No Iterations 12
smoothSolver:  Solving for Uy, Initial residual = 0.0577626, Final residual = 2.29544e-05, No Iterations 12
[OGL LOG] init_host_sparsity_pattern : 1 ms
[OGL LOG] matrix not stored update host matrix
[OGL LOG] update_host_mtx : 0 ms
[OGL LOG] matrix is not yet sorted, sorting host matrix
[OGL LOG] sort_host_mtx_sparsity_pattern : 1 ms
[OGL LOG] sort_host_mtx : 0 ms
[OGL LOG] init_preconditioner : 0 ms
[OGL LOG] solve : 174 ms
BJompGKOBiCGStab:  Solving for p, Initial residual = 0.274073, Final residual = 0.000273919, No Iterations 250
time step continuity errors : sum local = 7.15498e-06, global = 2.99459e-08, cumulative = -4.8252e-06
smoothSolver:  Solving for nuTilda, Initial residual = 0.175335, Final residual = 0.00486515, No Iterations 4
ExecutionTime = 3.01 s  ClockTime = 1 s

Time = 5

smoothSolver:  Solving for Ux, Initial residual = 0.120204, Final residual = 0.00010629, No Iterations 12
smoothSolver:  Solving for Uy, Initial residual = 0.157047, Final residual = 0.000134864, No Iterations 10
[OGL LOG] init_host_sparsity_pattern : 2 ms
[OGL LOG] matrix not stored update host matrix
[OGL LOG] update_host_mtx : 0 ms
[OGL LOG] matrix is not yet sorted, sorting host matrix
[OGL LOG] sort_host_mtx_sparsity_pattern : 1 ms
[OGL LOG] sort_host_mtx : 0 ms
[OGL LOG] init_preconditioner : 0 ms
[OGL LOG] solve : 200 ms
BJompGKOBiCGStab:  Solving for p, Initial residual = 0.145156, Final residual = 0.000126076, No Iterations 286
time step continuity errors : sum local = 2.54494e-05, global = -8.45462e-06, cumulative = -1.32798e-05
smoothSolver:  Solving for nuTilda, Initial residual = 0.116797, Final residual = 0.00317658, No Iterations 4
ExecutionTime = 3.84 s  ClockTime = 2 s

End

