/*---------------------------------------------------------------------------*\
  =========                 |
  \\      /  F ield         | OpenFOAM: The Open Source CFD Toolbox
   \\    /   O peration     | Website:  https://openfoam.org
    \\  /    A nd           | Version:  8
     \\/     M anipulation  |
\*---------------------------------------------------------------------------*/
Build  : 8-13d66902f78c
Exec   : simpleFoam
Date   : Jul 04 2021
Time   : 10:45:36
Host   : "uc2n419.localdomain"
PID    : 2917461
I/O    : uncollated
Case   : /pfs/data5/home/kit/scc/nq7776/code/OGL_DATA/airFoil2D/v0.1-136-g40fef35/f584ccac99/IntelXeonGold6230CPU@2.10GHz/Test_2021-07-04-10:45:33/0/p-BiCGStab-OF-DIC-reference/airFoil2D
nProcs : 1
sigFpe : Enabling floating point exception trapping (FOAM_SIGFPE).
fileModificationChecking : Monitoring run-time modified files using timeStampMaster (fileModificationSkew 10)
allowSystemOperations : Allowing user-supplied system call operations

// * * * * * * * * * * * * * * * * * * * * * * * * * * * * * * * * * * * * * //
Create time

Create mesh for time = 0


SIMPLE: Convergence criteria found
        p: tolerance 1e-05
        U: tolerance 1e-05
        nuTilda: tolerance 1e-05

Reading field p

Reading field U

Reading/calculating face flux field phi

Selecting incompressible transport model Newtonian
Selecting turbulence model type RAS
Selecting RAS turbulence model SpalartAllmaras
Selecting patchDistMethod meshWave
RAS
{
    model           SpalartAllmaras;
    turbulence      on;
    printCoeffs     on;
    sigmaNut        0.66666;
    kappa           0.41;
    Cb1             0.1355;
    Cb2             0.622;
    Cw2             0.3;
    Cw3             2;
    Cv1             7.1;
    Cs              0.3;
}

No MRF models present

No finite volume options present

Starting time loop

Time = 1

smoothSolver:  Solving for Ux, Initial residual = 1, Final residual = 0.000286765, No Iterations 6
smoothSolver:  Solving for Uy, Initial residual = 1, Final residual = 0.000266947, No Iterations 6
DICPBiCGStab:  Solving for p, Initial residual = 1, Final residual = 0.000819745, No Iterations 55
time step continuity errors : sum local = 2.68073e-06, global = 2.66636e-06, cumulative = 2.66636e-06
smoothSolver:  Solving for nuTilda, Initial residual = 1, Final residual = 0.04717, No Iterations 2
ExecutionTime = 0.13 s  ClockTime = 0 s

Time = 2

smoothSolver:  Solving for Ux, Initial residual = 0.427321, Final residual = 0.000365721, No Iterations 12
smoothSolver:  Solving for Uy, Initial residual = 0.575362, Final residual = 0.000497531, No Iterations 10
DICPBiCGStab:  Solving for p, Initial residual = 0.115871, Final residual = 9.58133e-05, No Iterations 53
time step continuity errors : sum local = 4.16003e-06, global = -6.52696e-07, cumulative = 2.01366e-06
smoothSolver:  Solving for nuTilda, Initial residual = 0.140377, Final residual = 0.0100015, No Iterations 2
ExecutionTime = 0.15 s  ClockTime = 1 s

Time = 3

smoothSolver:  Solving for Ux, Initial residual = 0.149375, Final residual = 0.000122345, No Iterations 12
smoothSolver:  Solving for Uy, Initial residual = 0.151132, Final residual = 5.54762e-05, No Iterations 12
DICPBiCGStab:  Solving for p, Initial residual = 0.18601, Final residual = 0.000142847, No Iterations 64
time step continuity errors : sum local = 4.25034e-06, global = -2.08699e-06, cumulative = -7.33241e-08
smoothSolver:  Solving for nuTilda, Initial residual = 0.137411, Final residual = 0.0135756, No Iterations 2
ExecutionTime = 0.18 s  ClockTime = 1 s

Time = 4

smoothSolver:  Solving for Ux, Initial residual = 0.0451963, Final residual = 2.0623e-05, No Iterations 12
smoothSolver:  Solving for Uy, Initial residual = 0.0575587, Final residual = 2.29181e-05, No Iterations 12
DICPBiCGStab:  Solving for p, Initial residual = 0.247048, Final residual = 0.000221008, No Iterations 52
time step continuity errors : sum local = 3.77413e-06, global = -1.40217e-07, cumulative = -2.13541e-07
smoothSolver:  Solving for nuTilda, Initial residual = 0.175177, Final residual = 0.00485865, No Iterations 4
ExecutionTime = 0.21 s  ClockTime = 1 s

Time = 5

smoothSolver:  Solving for Ux, Initial residual = 0.119855, Final residual = 0.000105894, No Iterations 12
smoothSolver:  Solving for Uy, Initial residual = 0.156446, Final residual = 0.000133805, No Iterations 10
DICPBiCGStab:  Solving for p, Initial residual = 0.16937, Final residual = 0.000167735, No Iterations 56
time step continuity errors : sum local = 5.27886e-06, global = -5.26325e-06, cumulative = -5.47679e-06
smoothSolver:  Solving for nuTilda, Initial residual = 0.116753, Final residual = 0.00317126, No Iterations 4
ExecutionTime = 0.23 s  ClockTime = 1 s

End

