/*---------------------------------------------------------------------------*\
  =========                 |
  \\      /  F ield         | OpenFOAM: The Open Source CFD Toolbox
   \\    /   O peration     | Website:  https://openfoam.org
    \\  /    A nd           | Version:  8
     \\/     M anipulation  |
\*---------------------------------------------------------------------------*/
Build  : 8-13d66902f78c
Exec   : simpleFoam
Date   : Jul 05 2021
Time   : 12:58:33
Host   : "uc2n375.localdomain"
PID    : 4106317
I/O    : uncollated
Case   : /pfs/data5/home/kit/scc/nq7776/code/OGL_DATA/airFoil2D/v0.1-136-g40fef35/f584ccac99/IntelXeonGold6230CPU@2.10GHz/Test_2021-07-05-12:54:54/0/p-CG-GKO-BJ-omp/airFoil2D
nProcs : 1
sigFpe : Enabling floating point exception trapping (FOAM_SIGFPE).
fileModificationChecking : Monitoring run-time modified files using timeStampMaster (fileModificationSkew 10)
allowSystemOperations : Allowing user-supplied system call operations

// * * * * * * * * * * * * * * * * * * * * * * * * * * * * * * * * * * * * * //
Create time

Create mesh for time = 0


SIMPLE: Convergence criteria found
        p: tolerance 1e-05
        U: tolerance 1e-05
        nuTilda: tolerance 1e-05

Reading field p

Reading field U

Reading/calculating face flux field phi

Selecting incompressible transport model Newtonian
Selecting turbulence model type RAS
Selecting RAS turbulence model SpalartAllmaras
Selecting patchDistMethod meshWave
RAS
{
    model           SpalartAllmaras;
    turbulence      on;
    printCoeffs     on;
    sigmaNut        0.66666;
    kappa           0.41;
    Cb1             0.1355;
    Cb2             0.622;
    Cw2             0.3;
    Cw3             2;
    Cv1             7.1;
    Cs              0.3;
}

No MRF models present

No finite volume options present

Starting time loop

Time = 1

smoothSolver:  Solving for Ux, Initial residual = 1, Final residual = 0.000286765, No Iterations 6
smoothSolver:  Solving for Uy, Initial residual = 1, Final residual = 0.000266947, No Iterations 6
[OGL LOG] init_host_sparsity_pattern : 2 ms
[OGL LOG] matrix not stored update host matrix
[OGL LOG] update_host_mtx : 1 ms
[OGL LOG] matrix is not yet sorted, compute sorting idxs
[OGL LOG] compute_sort : 49 ms
[OGL LOG] matrix is not yet sorted, sorting host matrix
[OGL LOG] sort_host_mtx_sparsity_pattern : 1 ms
[OGL LOG] sort_host_mtx : 0 ms
[OGL LOG] init_preconditioner : 1 ms
 CG create  precond 
[OGL LOG] solve : 83 ms
BJompGKOCG:  Solving for p, Initial residual = 1, Final residual = 0.000929174, No Iterations 273
time step continuity errors : sum local = 3.03859e-06, global = -6.2422e-08, cumulative = -6.2422e-08
smoothSolver:  Solving for nuTilda, Initial residual = 1, Final residual = 0.0471711, No Iterations 2
ExecutionTime = 0.89 s  ClockTime = 0 s

Time = 2

smoothSolver:  Solving for Ux, Initial residual = 0.427269, Final residual = 0.00036534, No Iterations 12
smoothSolver:  Solving for Uy, Initial residual = 0.575154, Final residual = 0.000497004, No Iterations 10
[OGL LOG] init_host_sparsity_pattern : 2 ms
[OGL LOG] matrix not stored update host matrix
[OGL LOG] update_host_mtx : 0 ms
[OGL LOG] matrix is not yet sorted, sorting host matrix
[OGL LOG] sort_host_mtx_sparsity_pattern : 1 ms
[OGL LOG] sort_host_mtx : 0 ms
[OGL LOG] init_preconditioner : 0 ms
 CG create  precond 
[OGL LOG] solve : 94 ms
BJompGKOCG:  Solving for p, Initial residual = 0.206651, Final residual = 0.000206374, No Iterations 421
time step continuity errors : sum local = 8.94444e-06, global = 5.25755e-08, cumulative = -9.84649e-09
smoothSolver:  Solving for nuTilda, Initial residual = 0.140369, Final residual = 0.0100014, No Iterations 2
ExecutionTime = 1.69 s  ClockTime = 1 s

Time = 3

smoothSolver:  Solving for Ux, Initial residual = 0.149409, Final residual = 0.000122256, No Iterations 12
smoothSolver:  Solving for Uy, Initial residual = 0.151185, Final residual = 5.5533e-05, No Iterations 12
[OGL LOG] init_host_sparsity_pattern : 1 ms
[OGL LOG] matrix not stored update host matrix
[OGL LOG] update_host_mtx : 0 ms
[OGL LOG] matrix is not yet sorted, sorting host matrix
[OGL LOG] sort_host_mtx_sparsity_pattern : 1 ms
[OGL LOG] sort_host_mtx : 0 ms
[OGL LOG] init_preconditioner : 0 ms
 CG create  precond 
[OGL LOG] solve : 109 ms
BJompGKOCG:  Solving for p, Initial residual = 0.105726, Final residual = 0.000103359, No Iterations 423
time step continuity errors : sum local = 3.07111e-06, global = 1.12605e-07, cumulative = 1.02758e-07
smoothSolver:  Solving for nuTilda, Initial residual = 0.137403, Final residual = 0.0135738, No Iterations 2
ExecutionTime = 2.62 s  ClockTime = 1 s

Time = 4

smoothSolver:  Solving for Ux, Initial residual = 0.045229, Final residual = 2.05804e-05, No Iterations 12
smoothSolver:  Solving for Uy, Initial residual = 0.0575476, Final residual = 2.2873e-05, No Iterations 12
[OGL LOG] init_host_sparsity_pattern : 1 ms
[OGL LOG] matrix not stored update host matrix
[OGL LOG] update_host_mtx : 0 ms
[OGL LOG] matrix is not yet sorted, sorting host matrix
[OGL LOG] sort_host_mtx_sparsity_pattern : 1 ms
[OGL LOG] sort_host_mtx : 0 ms
[OGL LOG] init_preconditioner : 0 ms
 CG create  precond 
[OGL LOG] solve : 107 ms
BJompGKOCG:  Solving for p, Initial residual = 0.279655, Final residual = 0.00027524, No Iterations 394
time step continuity errors : sum local = 4.67548e-06, global = -1.82212e-07, cumulative = -7.94534e-08
smoothSolver:  Solving for nuTilda, Initial residual = 0.175158, Final residual = 0.00485838, No Iterations 4
ExecutionTime = 3.52 s  ClockTime = 1 s

Time = 5

smoothSolver:  Solving for Ux, Initial residual = 0.119688, Final residual = 0.000105436, No Iterations 12
smoothSolver:  Solving for Uy, Initial residual = 0.156314, Final residual = 0.000133568, No Iterations 10
[OGL LOG] init_host_sparsity_pattern : 1 ms
[OGL LOG] matrix not stored update host matrix
[OGL LOG] update_host_mtx : 0 ms
[OGL LOG] matrix is not yet sorted, sorting host matrix
[OGL LOG] sort_host_mtx_sparsity_pattern : 1 ms
[OGL LOG] sort_host_mtx : 0 ms
[OGL LOG] init_preconditioner : 0 ms
 CG create  precond 
[OGL LOG] solve : 112 ms
BJompGKOCG:  Solving for p, Initial residual = 0.145596, Final residual = 0.000139529, No Iterations 413
time step continuity errors : sum local = 4.37409e-06, global = -3.33684e-08, cumulative = -1.12822e-07
smoothSolver:  Solving for nuTilda, Initial residual = 0.116738, Final residual = 0.00317156, No Iterations 4
ExecutionTime = 4.46 s  ClockTime = 1 s

End

