/*---------------------------------------------------------------------------*\
  =========                 |
  \\      /  F ield         | OpenFOAM: The Open Source CFD Toolbox
   \\    /   O peration     | Website:  https://openfoam.org
    \\  /    A nd           | Version:  8
     \\/     M anipulation  |
\*---------------------------------------------------------------------------*/
Build  : 8-13d66902f78c
Exec   : simpleFoam
Date   : Jul 05 2021
Time   : 12:59:41
Host   : "uc2n556.localdomain"
PID    : 1105962
I/O    : uncollated
Case   : /pfs/data5/home/kit/scc/nq7776/code/OGL_DATA/airFoil2D/v0.1-136-g40fef35/f584ccac99/IntelXeonGold6230CPU@2.10GHz/Test_2021-07-05-12:42:28/1/p-BiCGStab-GKO-BJ-omp/airFoil2D
nProcs : 1
sigFpe : Enabling floating point exception trapping (FOAM_SIGFPE).
fileModificationChecking : Monitoring run-time modified files using timeStampMaster (fileModificationSkew 10)
allowSystemOperations : Allowing user-supplied system call operations

// * * * * * * * * * * * * * * * * * * * * * * * * * * * * * * * * * * * * * //
Create time

Create mesh for time = 0


SIMPLE: Convergence criteria found
        p: tolerance 1e-05
        U: tolerance 1e-05
        nuTilda: tolerance 1e-05

Reading field p

Reading field U

Reading/calculating face flux field phi

Selecting incompressible transport model Newtonian
Selecting turbulence model type RAS
Selecting RAS turbulence model SpalartAllmaras
Selecting patchDistMethod meshWave
RAS
{
    model           SpalartAllmaras;
    turbulence      on;
    printCoeffs     on;
    sigmaNut        0.66666;
    kappa           0.41;
    Cb1             0.1355;
    Cb2             0.622;
    Cw2             0.3;
    Cw3             2;
    Cv1             7.1;
    Cs              0.3;
}

No MRF models present

No finite volume options present

Starting time loop

Time = 1

smoothSolver:  Solving for Ux, Initial residual = 1, Final residual = 0.000531638, No Iterations 14
smoothSolver:  Solving for Uy, Initial residual = 1, Final residual = 0.000467931, No Iterations 14
[OGL LOG] init_host_sparsity_pattern : 8 ms
[OGL LOG] matrix not stored update host matrix
[OGL LOG] update_host_mtx : 4 ms
[OGL LOG] matrix is not yet sorted, compute sorting idxs
[OGL LOG] compute_sort : 224 ms
[OGL LOG] matrix is not yet sorted, sorting host matrix
[OGL LOG] sort_host_mtx_sparsity_pattern : 5 ms
[OGL LOG] sort_host_mtx : 3 ms
[OGL LOG] init_preconditioner : 1 ms
[OGL LOG] solve : 1133 ms
BJompGKOBiCGStab:  Solving for p, Initial residual = 1, Final residual = 0.000922655, No Iterations 645
time step continuity errors : sum local = 2.35523e-06, global = 6.38196e-07, cumulative = 6.38196e-07
smoothSolver:  Solving for nuTilda, Initial residual = 1, Final residual = 0.0317375, No Iterations 2
ExecutionTime = 73.95 s  ClockTime = 1 s

Time = 2

smoothSolver:  Solving for Ux, Initial residual = 0.555726, Final residual = 0.000506202, No Iterations 10
smoothSolver:  Solving for Uy, Initial residual = 0.585548, Final residual = 0.000525867, No Iterations 10
[OGL LOG] init_host_sparsity_pattern : 8 ms
[OGL LOG] matrix not stored update host matrix
[OGL LOG] update_host_mtx : 3 ms
[OGL LOG] matrix is not yet sorted, sorting host matrix
[OGL LOG] sort_host_mtx_sparsity_pattern : 5 ms
[OGL LOG] sort_host_mtx : 3 ms
[OGL LOG] init_preconditioner : 0 ms
[OGL LOG] solve : 1604 ms
BJompGKOBiCGStab:  Solving for p, Initial residual = 0.116201, Final residual = 0.00103002, No Iterations 1000
time step continuity errors : sum local = 8.23734e-05, global = 3.49102e-05, cumulative = 3.55484e-05
smoothSolver:  Solving for nuTilda, Initial residual = 0.0521793, Final residual = 0.00153705, No Iterations 4
ExecutionTime = 176.84 s  ClockTime = 3 s

Time = 3

smoothSolver:  Solving for Ux, Initial residual = 0.164755, Final residual = 0.000152891, No Iterations 10
smoothSolver:  Solving for Uy, Initial residual = 0.133976, Final residual = 0.000120808, No Iterations 10
[OGL LOG] init_host_sparsity_pattern : 7 ms
[OGL LOG] matrix not stored update host matrix
[OGL LOG] update_host_mtx : 3 ms
[OGL LOG] matrix is not yet sorted, sorting host matrix
[OGL LOG] sort_host_mtx_sparsity_pattern : 5 ms
[OGL LOG] sort_host_mtx : 3 ms
[OGL LOG] init_preconditioner : 0 ms
[OGL LOG] solve : 1608 ms
BJompGKOBiCGStab:  Solving for p, Initial residual = 0.0539342, Final residual = 0.00146159, No Iterations 1000
time step continuity errors : sum local = 7.51325e-05, global = 3.70677e-05, cumulative = 7.26161e-05
smoothSolver:  Solving for nuTilda, Initial residual = 0.0314892, Final residual = 0.00132189, No Iterations 4
ExecutionTime = 279.9 s  ClockTime = 5 s

Time = 4

smoothSolver:  Solving for Ux, Initial residual = 0.0517266, Final residual = 4.37697e-05, No Iterations 10
smoothSolver:  Solving for Uy, Initial residual = 0.0499448, Final residual = 4.28682e-05, No Iterations 10
[OGL LOG] init_host_sparsity_pattern : 7 ms
[OGL LOG] matrix not stored update host matrix
[OGL LOG] update_host_mtx : 3 ms
[OGL LOG] matrix is not yet sorted, sorting host matrix
[OGL LOG] sort_host_mtx_sparsity_pattern : 5 ms
[OGL LOG] sort_host_mtx : 3 ms
[OGL LOG] init_preconditioner : 0 ms
[OGL LOG] solve : 1671 ms
BJompGKOBiCGStab:  Solving for p, Initial residual = 0.182493, Final residual = 0.000467915, No Iterations 1000
time step continuity errors : sum local = 1.2681e-05, global = -2.60511e-06, cumulative = 7.0011e-05
smoothSolver:  Solving for nuTilda, Initial residual = 0.0257406, Final residual = 0.00106852, No Iterations 4
ExecutionTime = 387 s  ClockTime = 7 s

Time = 5

smoothSolver:  Solving for Ux, Initial residual = 0.185138, Final residual = 0.000170314, No Iterations 10
smoothSolver:  Solving for Uy, Initial residual = 0.168774, Final residual = 0.0001512, No Iterations 10
[OGL LOG] init_host_sparsity_pattern : 7 ms
[OGL LOG] matrix not stored update host matrix
[OGL LOG] update_host_mtx : 3 ms
[OGL LOG] matrix is not yet sorted, sorting host matrix
[OGL LOG] sort_host_mtx_sparsity_pattern : 5 ms
[OGL LOG] sort_host_mtx : 3 ms
[OGL LOG] init_preconditioner : 0 ms
[OGL LOG] solve : 1654 ms
BJompGKOBiCGStab:  Solving for p, Initial residual = 0.0818808, Final residual = 0.000235371, No Iterations 1000
time step continuity errors : sum local = 1.27762e-05, global = 9.91187e-06, cumulative = 7.99228e-05
smoothSolver:  Solving for nuTilda, Initial residual = 0.0212191, Final residual = 0.000881616, No Iterations 4
ExecutionTime = 493.08 s  ClockTime = 8 s

End

