/*---------------------------------------------------------------------------*\
  =========                 |
  \\      /  F ield         | OpenFOAM: The Open Source CFD Toolbox
   \\    /   O peration     | Website:  https://openfoam.org
    \\  /    A nd           | Version:  8
     \\/     M anipulation  |
\*---------------------------------------------------------------------------*/
Build  : 8-13d66902f78c
Exec   : simpleFoam
Date   : Jul 05 2021
Time   : 12:56:17
Host   : "uc2n556.localdomain"
PID    : 1105096
I/O    : uncollated
Case   : /pfs/data5/home/kit/scc/nq7776/code/OGL_DATA/airFoil2D/v0.1-136-g40fef35/f584ccac99/IntelXeonGold6230CPU@2.10GHz/Test_2021-07-05-12:42:28/1/p-BiCGStab-GKO-BJ-omp/airFoil2D
nProcs : 1
sigFpe : Enabling floating point exception trapping (FOAM_SIGFPE).
fileModificationChecking : Monitoring run-time modified files using timeStampMaster (fileModificationSkew 10)
allowSystemOperations : Allowing user-supplied system call operations

// * * * * * * * * * * * * * * * * * * * * * * * * * * * * * * * * * * * * * //
Create time

Create mesh for time = 0


SIMPLE: Convergence criteria found
        p: tolerance 1e-05
        U: tolerance 1e-05
        nuTilda: tolerance 1e-05

Reading field p

Reading field U

Reading/calculating face flux field phi

Selecting incompressible transport model Newtonian
Selecting turbulence model type RAS
Selecting RAS turbulence model SpalartAllmaras
Selecting patchDistMethod meshWave
RAS
{
    model           SpalartAllmaras;
    turbulence      on;
    printCoeffs     on;
    sigmaNut        0.66666;
    kappa           0.41;
    Cb1             0.1355;
    Cb2             0.622;
    Cw2             0.3;
    Cw3             2;
    Cv1             7.1;
    Cs              0.3;
}

No MRF models present

No finite volume options present

Starting time loop

Time = 1

smoothSolver:  Solving for Ux, Initial residual = 1, Final residual = 0.000531638, No Iterations 14
smoothSolver:  Solving for Uy, Initial residual = 1, Final residual = 0.000467931, No Iterations 14
[OGL LOG] init_host_sparsity_pattern : 8 ms
[OGL LOG] matrix not stored update host matrix
[OGL LOG] update_host_mtx : 4 ms
[OGL LOG] matrix is not yet sorted, compute sorting idxs
[OGL LOG] compute_sort : 225 ms
[OGL LOG] matrix is not yet sorted, sorting host matrix
[OGL LOG] sort_host_mtx_sparsity_pattern : 5 ms
[OGL LOG] sort_host_mtx : 3 ms
[OGL LOG] init_preconditioner : 2 ms
[OGL LOG] solve : 1093 ms
BJompGKOBiCGStab:  Solving for p, Initial residual = 1, Final residual = 0.000922655, No Iterations 645
time step continuity errors : sum local = 2.35054e-06, global = 6.38196e-07, cumulative = 6.38196e-07
smoothSolver:  Solving for nuTilda, Initial residual = 1, Final residual = 0.0317375, No Iterations 2
ExecutionTime = 9.37 s  ClockTime = 2 s

Time = 2

smoothSolver:  Solving for Ux, Initial residual = 0.555726, Final residual = 0.000506201, No Iterations 10
smoothSolver:  Solving for Uy, Initial residual = 0.585548, Final residual = 0.000525867, No Iterations 10
[OGL LOG] init_host_sparsity_pattern : 8 ms
[OGL LOG] matrix not stored update host matrix
[OGL LOG] update_host_mtx : 4 ms
[OGL LOG] matrix is not yet sorted, sorting host matrix
[OGL LOG] sort_host_mtx_sparsity_pattern : 5 ms
[OGL LOG] sort_host_mtx : 3 ms
[OGL LOG] init_preconditioner : 0 ms
[OGL LOG] solve : 1793 ms
BJompGKOBiCGStab:  Solving for p, Initial residual = 0.116201, Final residual = 0.00106552, No Iterations 1000
time step continuity errors : sum local = 8.52128e-05, global = 3.55355e-05, cumulative = 3.61737e-05
smoothSolver:  Solving for nuTilda, Initial residual = 0.0521775, Final residual = 0.00153687, No Iterations 4
ExecutionTime = 23.8 s  ClockTime = 4 s

Time = 3

smoothSolver:  Solving for Ux, Initial residual = 0.164662, Final residual = 0.000152809, No Iterations 10
smoothSolver:  Solving for Uy, Initial residual = 0.133869, Final residual = 0.000120713, No Iterations 10
[OGL LOG] init_host_sparsity_pattern : 8 ms
[OGL LOG] matrix not stored update host matrix
[OGL LOG] update_host_mtx : 3 ms
[OGL LOG] matrix is not yet sorted, sorting host matrix
[OGL LOG] sort_host_mtx_sparsity_pattern : 5 ms
[OGL LOG] sort_host_mtx : 3 ms
[OGL LOG] init_preconditioner : 0 ms
[OGL LOG] solve : 1787 ms
BJompGKOBiCGStab:  Solving for p, Initial residual = 0.054007, Final residual = 0.00108808, No Iterations 1000
time step continuity errors : sum local = 5.59357e-05, global = 3.61815e-05, cumulative = 7.23551e-05
smoothSolver:  Solving for nuTilda, Initial residual = 0.0314905, Final residual = 0.00132226, No Iterations 4
ExecutionTime = 38.17 s  ClockTime = 6 s

Time = 4

smoothSolver:  Solving for Ux, Initial residual = 0.051362, Final residual = 4.34354e-05, No Iterations 10
smoothSolver:  Solving for Uy, Initial residual = 0.0497068, Final residual = 4.27095e-05, No Iterations 10
[OGL LOG] init_host_sparsity_pattern : 8 ms
[OGL LOG] matrix not stored update host matrix
[OGL LOG] update_host_mtx : 3 ms
[OGL LOG] matrix is not yet sorted, sorting host matrix
[OGL LOG] sort_host_mtx_sparsity_pattern : 5 ms
[OGL LOG] sort_host_mtx : 3 ms
[OGL LOG] init_preconditioner : 0 ms
[OGL LOG] solve : 1343 ms
BJompGKOBiCGStab:  Solving for p, Initial residual = 0.182618, Final residual = 0.000178295, No Iterations 745
time step continuity errors : sum local = 1.58665e-05, global = 9.26043e-06, cumulative = 8.16156e-05
smoothSolver:  Solving for nuTilda, Initial residual = 0.0257526, Final residual = 0.00106938, No Iterations 4
ExecutionTime = 48.99 s  ClockTime = 7 s

Time = 5

smoothSolver:  Solving for Ux, Initial residual = 0.185135, Final residual = 0.000170093, No Iterations 10
smoothSolver:  Solving for Uy, Initial residual = 0.16946, Final residual = 0.000151752, No Iterations 10
[OGL LOG] init_host_sparsity_pattern : 8 ms
[OGL LOG] matrix not stored update host matrix
[OGL LOG] update_host_mtx : 3 ms
[OGL LOG] matrix is not yet sorted, sorting host matrix
[OGL LOG] sort_host_mtx_sparsity_pattern : 5 ms
[OGL LOG] sort_host_mtx : 3 ms
[OGL LOG] init_preconditioner : 0 ms
[OGL LOG] solve : 1789 ms
BJompGKOBiCGStab:  Solving for p, Initial residual = 0.0811738, Final residual = 0.000528257, No Iterations 1000
time step continuity errors : sum local = 2.87439e-05, global = 1.93376e-05, cumulative = 0.000100953
smoothSolver:  Solving for nuTilda, Initial residual = 0.021234, Final residual = 0.000882081, No Iterations 4
ExecutionTime = 63.37 s  ClockTime = 9 s

End

