/*---------------------------------------------------------------------------*\
  =========                 |
  \\      /  F ield         | OpenFOAM: The Open Source CFD Toolbox
   \\    /   O peration     | Website:  https://openfoam.org
    \\  /    A nd           | Version:  8
     \\/     M anipulation  |
\*---------------------------------------------------------------------------*/
Build  : 8-13d66902f78c
Exec   : simpleFoam
Date   : Jul 05 2021
Time   : 12:10:58
Host   : "uc2n462.localdomain"
PID    : 3316627
I/O    : uncollated
Case   : /pfs/data5/home/kit/scc/nq7776/code/OGL_DATA/airFoil2D/v0.1-136-g40fef35/f584ccac99/IntelXeonGold6230CPU@2.10GHz/Test_2021-07-05-12:00:45/1/p-BiCGStab-GKO-none-omp/airFoil2D
nProcs : 1
sigFpe : Enabling floating point exception trapping (FOAM_SIGFPE).
fileModificationChecking : Monitoring run-time modified files using timeStampMaster (fileModificationSkew 10)
allowSystemOperations : Allowing user-supplied system call operations

// * * * * * * * * * * * * * * * * * * * * * * * * * * * * * * * * * * * * * //
Create time

Create mesh for time = 0


SIMPLE: Convergence criteria found
        p: tolerance 1e-05
        U: tolerance 1e-05
        nuTilda: tolerance 1e-05

Reading field p

Reading field U

Reading/calculating face flux field phi

Selecting incompressible transport model Newtonian
Selecting turbulence model type RAS
Selecting RAS turbulence model SpalartAllmaras
Selecting patchDistMethod meshWave
RAS
{
    model           SpalartAllmaras;
    turbulence      on;
    printCoeffs     on;
    sigmaNut        0.66666;
    kappa           0.41;
    Cb1             0.1355;
    Cb2             0.622;
    Cw2             0.3;
    Cw3             2;
    Cv1             7.1;
    Cs              0.3;
}

No MRF models present

No finite volume options present

Starting time loop

Time = 1

smoothSolver:  Solving for Ux, Initial residual = 1, Final residual = 0.000531638, No Iterations 14
smoothSolver:  Solving for Uy, Initial residual = 1, Final residual = 0.000467931, No Iterations 14
[OGL LOG] init_host_sparsity_pattern : 8 ms
[OGL LOG] matrix not stored update host matrix
[OGL LOG] update_host_mtx : 4 ms
[OGL LOG] matrix is not yet sorted, compute sorting idxs
[OGL LOG] compute_sort : 225 ms
[OGL LOG] matrix is not yet sorted, sorting host matrix
[OGL LOG] sort_host_mtx_sparsity_pattern : 5 ms
[OGL LOG] sort_host_mtx : 3 ms
[OGL LOG] init_preconditioner : 0 ms
[OGL LOG] solve : 1284 ms
noneompGKOBiCGStab:  Solving for p, Initial residual = 1, Final residual = 0.284499, No Iterations 1000
time step continuity errors : sum local = 0.000652234, global = -0.000602131, cumulative = -0.000602131
smoothSolver:  Solving for nuTilda, Initial residual = 1, Final residual = 0.0316227, No Iterations 2
ExecutionTime = 5.75 s  ClockTime = 2 s

Time = 2

smoothSolver:  Solving for Ux, Initial residual = 0.533206, Final residual = 0.000458319, No Iterations 10
smoothSolver:  Solving for Uy, Initial residual = 0.561833, Final residual = 0.000489952, No Iterations 10
[OGL LOG] init_host_sparsity_pattern : 8 ms
[OGL LOG] matrix not stored update host matrix
[OGL LOG] update_host_mtx : 4 ms
[OGL LOG] matrix is not yet sorted, sorting host matrix
[OGL LOG] sort_host_mtx_sparsity_pattern : 6 ms
[OGL LOG] sort_host_mtx : 3 ms
[OGL LOG] init_preconditioner : 0 ms
[OGL LOG] solve : 1326 ms
noneompGKOBiCGStab:  Solving for p, Initial residual = 0.687922, Final residual = 0.0211459, No Iterations 1000
time step continuity errors : sum local = 0.000304669, global = 8.07141e-05, cumulative = -0.000521417
smoothSolver:  Solving for nuTilda, Initial residual = 0.0522765, Final residual = 0.00155971, No Iterations 4
ExecutionTime = 11.12 s  ClockTime = 3 s

Time = 3

smoothSolver:  Solving for Ux, Initial residual = 0.191385, Final residual = 0.000179376, No Iterations 10
smoothSolver:  Solving for Uy, Initial residual = 0.162314, Final residual = 0.00014772, No Iterations 10
[OGL LOG] init_host_sparsity_pattern : 8 ms
[OGL LOG] matrix not stored update host matrix
[OGL LOG] update_host_mtx : 4 ms
[OGL LOG] matrix is not yet sorted, sorting host matrix
[OGL LOG] sort_host_mtx_sparsity_pattern : 5 ms
[OGL LOG] sort_host_mtx : 3 ms
[OGL LOG] init_preconditioner : 0 ms
[OGL LOG] solve : 1326 ms
noneompGKOBiCGStab:  Solving for p, Initial residual = 0.0535993, Final residual = 0.00692922, No Iterations 1000
time step continuity errors : sum local = 0.000541647, global = 0.000541647, cumulative = 2.02296e-05
smoothSolver:  Solving for nuTilda, Initial residual = 0.0327226, Final residual = 0.00137584, No Iterations 4
ExecutionTime = 16.5 s  ClockTime = 4 s

Time = 4

smoothSolver:  Solving for Ux, Initial residual = 0.144941, Final residual = 0.000121593, No Iterations 10
smoothSolver:  Solving for Uy, Initial residual = 0.133886, Final residual = 0.00011795, No Iterations 10
[OGL LOG] init_host_sparsity_pattern : 8 ms
[OGL LOG] matrix not stored update host matrix
[OGL LOG] update_host_mtx : 4 ms
[OGL LOG] matrix is not yet sorted, sorting host matrix
[OGL LOG] sort_host_mtx_sparsity_pattern : 5 ms
[OGL LOG] sort_host_mtx : 3 ms
[OGL LOG] init_preconditioner : 0 ms
[OGL LOG] solve : 1325 ms
noneompGKOBiCGStab:  Solving for p, Initial residual = 0.073375, Final residual = 0.00328722, No Iterations 1000
time step continuity errors : sum local = 0.000283535, global = 5.76921e-05, cumulative = 7.79218e-05
smoothSolver:  Solving for nuTilda, Initial residual = 0.0264693, Final residual = 0.00116356, No Iterations 4
ExecutionTime = 21.87 s  ClockTime = 6 s

Time = 5

smoothSolver:  Solving for Ux, Initial residual = 0.178134, Final residual = 0.00016138, No Iterations 10
smoothSolver:  Solving for Uy, Initial residual = 0.156847, Final residual = 0.000137748, No Iterations 10
[OGL LOG] init_host_sparsity_pattern : 8 ms
[OGL LOG] matrix not stored update host matrix
[OGL LOG] update_host_mtx : 4 ms
[OGL LOG] matrix is not yet sorted, sorting host matrix
[OGL LOG] sort_host_mtx_sparsity_pattern : 5 ms
[OGL LOG] sort_host_mtx : 3 ms
[OGL LOG] init_preconditioner : 0 ms
[OGL LOG] solve : 1323 ms
noneompGKOBiCGStab:  Solving for p, Initial residual = 0.280858, Final residual = 0.00625205, No Iterations 1000
time step continuity errors : sum local = 0.000136915, global = -0.000115208, cumulative = -3.72867e-05
smoothSolver:  Solving for nuTilda, Initial residual = 0.0221912, Final residual = 0.000943266, No Iterations 4
ExecutionTime = 27.23 s  ClockTime = 7 s

End

