/*---------------------------------------------------------------------------*\
  =========                 |
  \\      /  F ield         | OpenFOAM: The Open Source CFD Toolbox
   \\    /   O peration     | Website:  https://openfoam.org
    \\  /    A nd           | Version:  8
     \\/     M anipulation  |
\*---------------------------------------------------------------------------*/
Build  : 8-13d66902f78c
Exec   : simpleFoam
Date   : Jul 04 2021
Time   : 10:37:58
Host   : "uc2n390.localdomain"
PID    : 2134486
I/O    : uncollated
Case   : /pfs/data5/home/kit/scc/nq7776/code/OGL_DATA/airFoil2D/v0.1-136-g40fef35/f584ccac99/IntelXeonGold6230CPU@2.10GHz/Test_2021-07-04-10:23:35/1/p-U-BiCGStab-GKO-BJ-omp/airFoil2D
nProcs : 1
sigFpe : Enabling floating point exception trapping (FOAM_SIGFPE).
fileModificationChecking : Monitoring run-time modified files using timeStampMaster (fileModificationSkew 10)
allowSystemOperations : Allowing user-supplied system call operations

// * * * * * * * * * * * * * * * * * * * * * * * * * * * * * * * * * * * * * //
Create time

Create mesh for time = 0


SIMPLE: Convergence criteria found
        p: tolerance 1e-05
        U: tolerance 1e-05
        nuTilda: tolerance 1e-05

Reading field p

Reading field U

Reading/calculating face flux field phi

Selecting incompressible transport model Newtonian
Selecting turbulence model type RAS
Selecting RAS turbulence model SpalartAllmaras
Selecting patchDistMethod meshWave
RAS
{
    model           SpalartAllmaras;
    turbulence      on;
    printCoeffs     on;
    sigmaNut        0.66666;
    kappa           0.41;
    Cb1             0.1355;
    Cb2             0.622;
    Cw2             0.3;
    Cw3             2;
    Cv1             7.1;
    Cs              0.3;
}

No MRF models present

No finite volume options present

Starting time loop

Time = 1

[OGL LOG] init_host_sparsity_pattern : 8 ms
[OGL LOG] matrix not stored update host matrix
[OGL LOG] update_host_mtx : 4 ms
[OGL LOG] matrix is not yet sorted, compute sorting idxs
[OGL LOG] compute_sort : 224 ms
[OGL LOG] matrix is not yet sorted, sorting host matrix
[OGL LOG] sort_host_mtx_sparsity_pattern : 5 ms
[OGL LOG] sort_host_mtx : 3 ms
[OGL LOG] init_preconditioner : 1 ms
[OGL LOG] solve : 20 ms
BJompGKOBiCGStab:  Solving for Ux, Initial residual = 130.982, Final residual = 0.127301, No Iterations 11
[OGL LOG] init_host_sparsity_pattern : 10 ms
[OGL LOG] matrix not stored update host matrix
[OGL LOG] update_host_mtx : 4 ms
[OGL LOG] matrix is not yet sorted, sorting host matrix
[OGL LOG] sort_host_mtx_sparsity_pattern : 5 ms
[OGL LOG] sort_host_mtx : 3 ms
[OGL LOG] init_preconditioner : 1 ms
[OGL LOG] solve : 18 ms
BJompGKOBiCGStab:  Solving for Uy, Initial residual = 133.957, Final residual = 0.130881, No Iterations 11
[OGL LOG] init_host_sparsity_pattern : 8 ms
[OGL LOG] matrix not stored update host matrix
[OGL LOG] update_host_mtx : 4 ms
[OGL LOG] matrix is not yet sorted, sorting host matrix
[OGL LOG] sort_host_mtx_sparsity_pattern : 5 ms
[OGL LOG] sort_host_mtx : 3 ms
[OGL LOG] init_preconditioner : 1 ms
[OGL LOG] solve : 629 ms
BJompGKOBiCGStab:  Solving for p, Initial residual = 1, Final residual = 0.000975325, No Iterations 401
time step continuity errors : sum local = 6.84266e-05, global = -5.21042e-05, cumulative = -5.21042e-05
smoothSolver:  Solving for nuTilda, Initial residual = 1, Final residual = 0.0697523, No Iterations 2
ExecutionTime = 22.69 s  ClockTime = 1 s

Time = 2

[OGL LOG] init_host_sparsity_pattern : 8 ms
[OGL LOG] matrix not stored update host matrix
[OGL LOG] update_host_mtx : 3 ms
[OGL LOG] matrix is not yet sorted, sorting host matrix
[OGL LOG] sort_host_mtx_sparsity_pattern : 5 ms
[OGL LOG] sort_host_mtx : 3 ms
[OGL LOG] init_preconditioner : 0 ms
[OGL LOG] solve : 21 ms
BJompGKOBiCGStab:  Solving for Ux, Initial residual = 0.54837, Final residual = 0.000490451, No Iterations 13
[OGL LOG] init_host_sparsity_pattern : 9 ms
[OGL LOG] matrix not stored update host matrix
[OGL LOG] update_host_mtx : 3 ms
[OGL LOG] matrix is not yet sorted, sorting host matrix
[OGL LOG] sort_host_mtx_sparsity_pattern : 5 ms
[OGL LOG] sort_host_mtx : 3 ms
[OGL LOG] init_preconditioner : 0 ms
[OGL LOG] solve : 23 ms
BJompGKOBiCGStab:  Solving for Uy, Initial residual = 0.715823, Final residual = 0.000280812, No Iterations 14
[OGL LOG] init_host_sparsity_pattern : 8 ms
[OGL LOG] matrix not stored update host matrix
[OGL LOG] update_host_mtx : 3 ms
[OGL LOG] matrix is not yet sorted, sorting host matrix
[OGL LOG] sort_host_mtx_sparsity_pattern : 5 ms
[OGL LOG] sort_host_mtx : 3 ms
[OGL LOG] init_preconditioner : 0 ms
[OGL LOG] solve : 1164 ms
BJompGKOBiCGStab:  Solving for p, Initial residual = 0.228081, Final residual = 0.000224784, No Iterations 730
time step continuity errors : sum local = 4.43633e-05, global = 3.16943e-05, cumulative = -2.04099e-05
smoothSolver:  Solving for nuTilda, Initial residual = 0.116925, Final residual = 0.0051022, No Iterations 4
ExecutionTime = 61.94 s  ClockTime = 2 s

Time = 3

[OGL LOG] init_host_sparsity_pattern : 8 ms
[OGL LOG] matrix not stored update host matrix
[OGL LOG] update_host_mtx : 3 ms
[OGL LOG] matrix is not yet sorted, sorting host matrix
[OGL LOG] sort_host_mtx_sparsity_pattern : 5 ms
[OGL LOG] sort_host_mtx : 3 ms
[OGL LOG] init_preconditioner : 0 ms
[OGL LOG] solve : 22 ms
BJompGKOBiCGStab:  Solving for Ux, Initial residual = 0.268767, Final residual = 0.000263591, No Iterations 12
[OGL LOG] init_host_sparsity_pattern : 9 ms
[OGL LOG] matrix not stored update host matrix
[OGL LOG] update_host_mtx : 3 ms
[OGL LOG] matrix is not yet sorted, sorting host matrix
[OGL LOG] sort_host_mtx_sparsity_pattern : 5 ms
[OGL LOG] sort_host_mtx : 3 ms
[OGL LOG] init_preconditioner : 0 ms
[OGL LOG] solve : 21 ms
BJompGKOBiCGStab:  Solving for Uy, Initial residual = 0.202591, Final residual = 0.000113325, No Iterations 11
[OGL LOG] init_host_sparsity_pattern : 8 ms
[OGL LOG] matrix not stored update host matrix
[OGL LOG] update_host_mtx : 3 ms
[OGL LOG] matrix is not yet sorted, sorting host matrix
[OGL LOG] sort_host_mtx_sparsity_pattern : 5 ms
[OGL LOG] sort_host_mtx : 3 ms
[OGL LOG] init_preconditioner : 0 ms
[OGL LOG] solve : 1422 ms
BJompGKOBiCGStab:  Solving for p, Initial residual = 0.148361, Final residual = 0.00120692, No Iterations 1000
time step continuity errors : sum local = 0.000223652, global = 7.57566e-05, cumulative = 5.53467e-05
smoothSolver:  Solving for nuTilda, Initial residual = 0.102719, Final residual = 0.00521344, No Iterations 4
ExecutionTime = 109.44 s  ClockTime = 4 s

Time = 4

[OGL LOG] init_host_sparsity_pattern : 8 ms
[OGL LOG] matrix not stored update host matrix
[OGL LOG] update_host_mtx : 3 ms
[OGL LOG] matrix is not yet sorted, sorting host matrix
[OGL LOG] sort_host_mtx_sparsity_pattern : 5 ms
[OGL LOG] sort_host_mtx : 3 ms
[OGL LOG] init_preconditioner : 0 ms
[OGL LOG] solve : 20 ms
BJompGKOBiCGStab:  Solving for Ux, Initial residual = 0.201187, Final residual = 0.000145675, No Iterations 12
[OGL LOG] init_host_sparsity_pattern : 9 ms
[OGL LOG] matrix not stored update host matrix
[OGL LOG] update_host_mtx : 3 ms
[OGL LOG] matrix is not yet sorted, sorting host matrix
[OGL LOG] sort_host_mtx_sparsity_pattern : 5 ms
[OGL LOG] sort_host_mtx : 3 ms
[OGL LOG] init_preconditioner : 0 ms
[OGL LOG] solve : 19 ms
BJompGKOBiCGStab:  Solving for Uy, Initial residual = 0.148719, Final residual = 0.000139242, No Iterations 12
[OGL LOG] init_host_sparsity_pattern : 8 ms
[OGL LOG] matrix not stored update host matrix
[OGL LOG] update_host_mtx : 4 ms
[OGL LOG] matrix is not yet sorted, sorting host matrix
[OGL LOG] sort_host_mtx_sparsity_pattern : 5 ms
[OGL LOG] sort_host_mtx : 3 ms
[OGL LOG] init_preconditioner : 0 ms
[OGL LOG] solve : 1054 ms
BJompGKOBiCGStab:  Solving for p, Initial residual = 0.265248, Final residual = 0.000263257, No Iterations 756
time step continuity errors : sum local = 3.91971e-05, global = 2.47119e-06, cumulative = 5.78179e-05
smoothSolver:  Solving for nuTilda, Initial residual = 0.102868, Final residual = 0.00512098, No Iterations 4
ExecutionTime = 145.02 s  ClockTime = 5 s

Time = 5

[OGL LOG] init_host_sparsity_pattern : 8 ms
[OGL LOG] matrix not stored update host matrix
[OGL LOG] update_host_mtx : 3 ms
[OGL LOG] matrix is not yet sorted, sorting host matrix
[OGL LOG] sort_host_mtx_sparsity_pattern : 5 ms
[OGL LOG] sort_host_mtx : 3 ms
[OGL LOG] init_preconditioner : 0 ms
[OGL LOG] solve : 18 ms
BJompGKOBiCGStab:  Solving for Ux, Initial residual = 0.21154, Final residual = 0.000210611, No Iterations 12
[OGL LOG] init_host_sparsity_pattern : 9 ms
[OGL LOG] matrix not stored update host matrix
[OGL LOG] update_host_mtx : 3 ms
[OGL LOG] matrix is not yet sorted, sorting host matrix
[OGL LOG] sort_host_mtx_sparsity_pattern : 5 ms
[OGL LOG] sort_host_mtx : 3 ms
[OGL LOG] init_preconditioner : 0 ms
[OGL LOG] solve : 18 ms
BJompGKOBiCGStab:  Solving for Uy, Initial residual = 0.154349, Final residual = 0.000149713, No Iterations 12
[OGL LOG] init_host_sparsity_pattern : 8 ms
[OGL LOG] matrix not stored update host matrix
[OGL LOG] update_host_mtx : 3 ms
[OGL LOG] matrix is not yet sorted, sorting host matrix
[OGL LOG] sort_host_mtx_sparsity_pattern : 5 ms
[OGL LOG] sort_host_mtx : 3 ms
[OGL LOG] init_preconditioner : 0 ms
[OGL LOG] solve : 1178 ms
BJompGKOBiCGStab:  Solving for p, Initial residual = 0.219466, Final residual = 0.00021556, No Iterations 832
time step continuity errors : sum local = 3.13734e-05, global = -2.31474e-05, cumulative = 3.46705e-05
smoothSolver:  Solving for nuTilda, Initial residual = 0.0979417, Final residual = 0.00485495, No Iterations 4
ExecutionTime = 184.41 s  ClockTime = 7 s

End

