/*---------------------------------------------------------------------------*\
  =========                 |
  \\      /  F ield         | OpenFOAM: The Open Source CFD Toolbox
   \\    /   O peration     | Website:  https://openfoam.org
    \\  /    A nd           | Version:  8
     \\/     M anipulation  |
\*---------------------------------------------------------------------------*/
Build  : 8-13d66902f78c
Exec   : simpleFoam
Date   : Jul 05 2021
Time   : 12:52:54
Host   : "uc2n407.localdomain"
PID    : 3150751
I/O    : uncollated
Case   : /pfs/data5/home/kit/scc/nq7776/code/OGL_DATA/airFoil2D/v0.1-136-g40fef35/f584ccac99/IntelXeonGold6230CPU@2.10GHz/Test_2021-07-05-12:36:22/1/p-IR-GKO-none-omp/airFoil2D
nProcs : 1
sigFpe : Enabling floating point exception trapping (FOAM_SIGFPE).
fileModificationChecking : Monitoring run-time modified files using timeStampMaster (fileModificationSkew 10)
allowSystemOperations : Allowing user-supplied system call operations

// * * * * * * * * * * * * * * * * * * * * * * * * * * * * * * * * * * * * * //
Create time

Create mesh for time = 0


SIMPLE: Convergence criteria found
        p: tolerance 1e-05
        U: tolerance 1e-05
        nuTilda: tolerance 1e-05

Reading field p

Reading field U

Reading/calculating face flux field phi

Selecting incompressible transport model Newtonian
Selecting turbulence model type RAS
Selecting RAS turbulence model SpalartAllmaras
Selecting patchDistMethod meshWave
RAS
{
    model           SpalartAllmaras;
    turbulence      on;
    printCoeffs     on;
    sigmaNut        0.66666;
    kappa           0.41;
    Cb1             0.1355;
    Cb2             0.622;
    Cw2             0.3;
    Cw3             2;
    Cv1             7.1;
    Cs              0.3;
}

No MRF models present

No finite volume options present

Starting time loop

Time = 1

smoothSolver:  Solving for Ux, Initial residual = 1, Final residual = 0.000531638, No Iterations 14
smoothSolver:  Solving for Uy, Initial residual = 1, Final residual = 0.000467931, No Iterations 14
[OGL LOG] init_host_sparsity_pattern : 8 ms
[OGL LOG] matrix not stored update host matrix
[OGL LOG] update_host_mtx : 3 ms
[OGL LOG] matrix is not yet sorted, compute sorting idxs
[OGL LOG] compute_sort : 225 ms
[OGL LOG] matrix is not yet sorted, sorting host matrix
[OGL LOG] sort_host_mtx_sparsity_pattern : 5 ms
[OGL LOG] sort_host_mtx : 3 ms
[OGL LOG] init_preconditioner : 0 ms
[OGL LOG] solve : 2372 ms
noneompGKOIR:  Solving for p, Initial residual = 1, Final residual = 0.000974073, No Iterations 2
time step continuity errors : sum local = 2.23313e-06, global = -1.12639e-07, cumulative = -1.12639e-07
smoothSolver:  Solving for nuTilda, Initial residual = 1, Final residual = 0.0317384, No Iterations 2
ExecutionTime = 152.86 s  ClockTime = 3 s

Time = 2

smoothSolver:  Solving for Ux, Initial residual = 0.555844, Final residual = 0.000506287, No Iterations 10
smoothSolver:  Solving for Uy, Initial residual = 0.585598, Final residual = 0.000525902, No Iterations 10
[OGL LOG] init_host_sparsity_pattern : 7 ms
[OGL LOG] matrix not stored update host matrix
[OGL LOG] update_host_mtx : 3 ms
[OGL LOG] matrix is not yet sorted, sorting host matrix
[OGL LOG] sort_host_mtx_sparsity_pattern : 5 ms
[OGL LOG] sort_host_mtx : 3 ms
[OGL LOG] init_preconditioner : 0 ms
[OGL LOG] solve : 2489 ms
noneompGKOIR:  Solving for p, Initial residual = 0.116221, Final residual = 6.07081e-05, No Iterations 2
time step continuity errors : sum local = 4.85403e-06, global = -2.11928e-08, cumulative = -1.33832e-07
smoothSolver:  Solving for nuTilda, Initial residual = 0.0522262, Final residual = 0.00154133, No Iterations 4
ExecutionTime = 312.25 s  ClockTime = 6 s

Time = 3

smoothSolver:  Solving for Ux, Initial residual = 0.16744, Final residual = 0.000155099, No Iterations 10
smoothSolver:  Solving for Uy, Initial residual = 0.136668, Final residual = 0.000123111, No Iterations 10
[OGL LOG] init_host_sparsity_pattern : 7 ms
[OGL LOG] matrix not stored update host matrix
[OGL LOG] update_host_mtx : 3 ms
[OGL LOG] matrix is not yet sorted, sorting host matrix
[OGL LOG] sort_host_mtx_sparsity_pattern : 5 ms
[OGL LOG] sort_host_mtx : 3 ms
[OGL LOG] init_preconditioner : 0 ms
[OGL LOG] solve : 2356 ms
noneompGKOIR:  Solving for p, Initial residual = 0.0530667, Final residual = 2.93473e-05, No Iterations 2
time step continuity errors : sum local = 1.49953e-06, global = 6.63774e-08, cumulative = -6.74548e-08
smoothSolver:  Solving for nuTilda, Initial residual = 0.0316062, Final residual = 0.0013317, No Iterations 4
ExecutionTime = 463.03 s  ClockTime = 8 s

Time = 4

smoothSolver:  Solving for Ux, Initial residual = 0.0502116, Final residual = 4.2765e-05, No Iterations 10
smoothSolver:  Solving for Uy, Initial residual = 0.0494347, Final residual = 4.25188e-05, No Iterations 10
[OGL LOG] init_host_sparsity_pattern : 8 ms
[OGL LOG] matrix not stored update host matrix
[OGL LOG] update_host_mtx : 3 ms
[OGL LOG] matrix is not yet sorted, sorting host matrix
[OGL LOG] sort_host_mtx_sparsity_pattern : 5 ms
[OGL LOG] sort_host_mtx : 3 ms
[OGL LOG] init_preconditioner : 0 ms
[OGL LOG] solve : 2372 ms
noneompGKOIR:  Solving for p, Initial residual = 0.176418, Final residual = 5.26552e-05, No Iterations 2
time step continuity errors : sum local = 1.48332e-06, global = -1.95816e-09, cumulative = -6.9413e-08
smoothSolver:  Solving for nuTilda, Initial residual = 0.0258936, Final residual = 0.00107707, No Iterations 4
ExecutionTime = 614.82 s  ClockTime = 11 s

Time = 5

smoothSolver:  Solving for Ux, Initial residual = 0.189496, Final residual = 0.000173007, No Iterations 10
smoothSolver:  Solving for Uy, Initial residual = 0.173561, Final residual = 0.000155188, No Iterations 10
[OGL LOG] init_host_sparsity_pattern : 8 ms
[OGL LOG] matrix not stored update host matrix
[OGL LOG] update_host_mtx : 4 ms
[OGL LOG] matrix is not yet sorted, sorting host matrix
[OGL LOG] sort_host_mtx_sparsity_pattern : 5 ms
[OGL LOG] sort_host_mtx : 3 ms
[OGL LOG] init_preconditioner : 0 ms
[OGL LOG] solve : 2382 ms
noneompGKOIR:  Solving for p, Initial residual = 0.0808787, Final residual = 3.64516e-05, No Iterations 2
time step continuity errors : sum local = 1.97907e-06, global = -1.21891e-07, cumulative = -1.91304e-07
smoothSolver:  Solving for nuTilda, Initial residual = 0.0213193, Final residual = 0.000885256, No Iterations 4
ExecutionTime = 767.25 s  ClockTime = 13 s

End

