/*---------------------------------------------------------------------------*\
  =========                 |
  \\      /  F ield         | OpenFOAM: The Open Source CFD Toolbox
   \\    /   O peration     | Website:  https://openfoam.org
    \\  /    A nd           | Version:  8
     \\/     M anipulation  |
\*---------------------------------------------------------------------------*/
Build  : 8-13d66902f78c
Exec   : simpleFoam
Date   : Jul 04 2021
Time   : 09:52:29
Host   : "uc2n430.localdomain"
PID    : 2468226
I/O    : uncollated
Case   : /pfs/data5/home/kit/scc/nq7776/code/OGL_DATA/airFoil2D/v0.1-136-g40fef35/f584ccac99/IntelXeonGold6230CPU@2.10GHz/Test_2021-07-04-09:37:33/1/p-BiCGStab-GKO-BJ-omp/airFoil2D
nProcs : 1
sigFpe : Enabling floating point exception trapping (FOAM_SIGFPE).
fileModificationChecking : Monitoring run-time modified files using timeStampMaster (fileModificationSkew 10)
allowSystemOperations : Allowing user-supplied system call operations

// * * * * * * * * * * * * * * * * * * * * * * * * * * * * * * * * * * * * * //
Create time

Create mesh for time = 0


SIMPLE: Convergence criteria found
        p: tolerance 1e-05
        U: tolerance 1e-05
        nuTilda: tolerance 1e-05

Reading field p

Reading field U

Reading/calculating face flux field phi

Selecting incompressible transport model Newtonian
Selecting turbulence model type RAS
Selecting RAS turbulence model SpalartAllmaras
Selecting patchDistMethod meshWave
RAS
{
    model           SpalartAllmaras;
    turbulence      on;
    printCoeffs     on;
    sigmaNut        0.66666;
    kappa           0.41;
    Cb1             0.1355;
    Cb2             0.622;
    Cw2             0.3;
    Cw3             2;
    Cv1             7.1;
    Cs              0.3;
}

No MRF models present

No finite volume options present

Starting time loop

Time = 1

smoothSolver:  Solving for Ux, Initial residual = 1, Final residual = 0.000531638, No Iterations 14
smoothSolver:  Solving for Uy, Initial residual = 1, Final residual = 0.000467931, No Iterations 14
[OGL LOG] init_host_sparsity_pattern : 8 ms
[OGL LOG] matrix not stored update host matrix
[OGL LOG] update_host_mtx : 3 ms
[OGL LOG] matrix is not yet sorted, compute sorting idxs
[OGL LOG] compute_sort : 224 ms
[OGL LOG] matrix is not yet sorted, sorting host matrix
[OGL LOG] sort_host_mtx_sparsity_pattern : 5 ms
[OGL LOG] sort_host_mtx : 3 ms
[OGL LOG] init_preconditioner : 2 ms
[OGL LOG] solve : 1054 ms
BJompGKOBiCGStab:  Solving for p, Initial residual = 1, Final residual = 0.000922655, No Iterations 645
time step continuity errors : sum local = 2.68756e-06, global = 6.38196e-07, cumulative = 6.38196e-07
smoothSolver:  Solving for nuTilda, Initial residual = 1, Final residual = 0.0317375, No Iterations 2
ExecutionTime = 17.54 s  ClockTime = 2 s

Time = 2

smoothSolver:  Solving for Ux, Initial residual = 0.555726, Final residual = 0.000506201, No Iterations 10
smoothSolver:  Solving for Uy, Initial residual = 0.585548, Final residual = 0.000525867, No Iterations 10
[OGL LOG] init_host_sparsity_pattern : 8 ms
[OGL LOG] matrix not stored update host matrix
[OGL LOG] update_host_mtx : 3 ms
[OGL LOG] matrix is not yet sorted, sorting host matrix
[OGL LOG] sort_host_mtx_sparsity_pattern : 5 ms
[OGL LOG] sort_host_mtx : 3 ms
[OGL LOG] init_preconditioner : 0 ms
[OGL LOG] solve : 1357 ms
BJompGKOBiCGStab:  Solving for p, Initial residual = 0.116203, Final residual = 0.000958801, No Iterations 1000
time step continuity errors : sum local = 7.66779e-05, global = 3.29807e-05, cumulative = 3.36189e-05
smoothSolver:  Solving for nuTilda, Initial residual = 0.0521804, Final residual = 0.00153722, No Iterations 4
ExecutionTime = 39.35 s  ClockTime = 3 s

Time = 3

smoothSolver:  Solving for Ux, Initial residual = 0.16485, Final residual = 0.000152961, No Iterations 10
smoothSolver:  Solving for Uy, Initial residual = 0.13409, Final residual = 0.000120905, No Iterations 10
[OGL LOG] init_host_sparsity_pattern : 8 ms
[OGL LOG] matrix not stored update host matrix
[OGL LOG] update_host_mtx : 3 ms
[OGL LOG] matrix is not yet sorted, sorting host matrix
[OGL LOG] sort_host_mtx_sparsity_pattern : 5 ms
[OGL LOG] sort_host_mtx : 3 ms
[OGL LOG] init_preconditioner : 0 ms
[OGL LOG] solve : 1370 ms
BJompGKOBiCGStab:  Solving for p, Initial residual = 0.0538289, Final residual = 0.00235284, No Iterations 1000
time step continuity errors : sum local = 0.000120901, global = 4.57667e-05, cumulative = 7.93856e-05
smoothSolver:  Solving for nuTilda, Initial residual = 0.0314846, Final residual = 0.00132116, No Iterations 4
ExecutionTime = 61.37 s  ClockTime = 5 s

Time = 4

smoothSolver:  Solving for Ux, Initial residual = 0.0524683, Final residual = 4.43189e-05, No Iterations 10
smoothSolver:  Solving for Uy, Initial residual = 0.0505657, Final residual = 4.33178e-05, No Iterations 10
[OGL LOG] init_host_sparsity_pattern : 7 ms
[OGL LOG] matrix not stored update host matrix
[OGL LOG] update_host_mtx : 3 ms
[OGL LOG] matrix is not yet sorted, sorting host matrix
[OGL LOG] sort_host_mtx_sparsity_pattern : 5 ms
[OGL LOG] sort_host_mtx : 3 ms
[OGL LOG] init_preconditioner : 0 ms
[OGL LOG] solve : 1321 ms
BJompGKOBiCGStab:  Solving for p, Initial residual = 0.184217, Final residual = 0.000163652, No Iterations 979
time step continuity errors : sum local = 1.45464e-05, global = -2.63877e-06, cumulative = 7.67469e-05
smoothSolver:  Solving for nuTilda, Initial residual = 0.0257238, Final residual = 0.00106719, No Iterations 4
ExecutionTime = 82.59 s  ClockTime = 6 s

Time = 5

smoothSolver:  Solving for Ux, Initial residual = 0.185235, Final residual = 0.000170442, No Iterations 10
smoothSolver:  Solving for Uy, Initial residual = 0.168339, Final residual = 0.000150826, No Iterations 10
[OGL LOG] init_host_sparsity_pattern : 7 ms
[OGL LOG] matrix not stored update host matrix
[OGL LOG] update_host_mtx : 3 ms
[OGL LOG] matrix is not yet sorted, sorting host matrix
[OGL LOG] sort_host_mtx_sparsity_pattern : 5 ms
[OGL LOG] sort_host_mtx : 3 ms
[OGL LOG] init_preconditioner : 0 ms
[OGL LOG] solve : 1347 ms
BJompGKOBiCGStab:  Solving for p, Initial residual = 0.0821992, Final residual = 0.000259993, No Iterations 1000
time step continuity errors : sum local = 1.41179e-05, global = 1.02897e-05, cumulative = 8.70366e-05
smoothSolver:  Solving for nuTilda, Initial residual = 0.021192, Final residual = 0.00088066, No Iterations 4
ExecutionTime = 104.23 s  ClockTime = 7 s

End

