/*---------------------------------------------------------------------------*\
  =========                 |
  \\      /  F ield         | OpenFOAM: The Open Source CFD Toolbox
   \\    /   O peration     | Website:  https://openfoam.org
    \\  /    A nd           | Version:  8
     \\/     M anipulation  |
\*---------------------------------------------------------------------------*/
Build  : 8-13d66902f78c
Exec   : simpleFoam
Date   : Jul 04 2021
Time   : 10:59:06
Host   : "uc2n449.localdomain"
PID    : 2085373
I/O    : uncollated
Case   : /pfs/data5/home/kit/scc/nq7776/code/OGL_DATA/airFoil2D/v0.1-136-g40fef35/f584ccac99/IntelXeonGold6230CPU@2.10GHz/Test_2021-07-04-10:23:01/2/p-U-CG-GKO-BJ-omp/airFoil2D
nProcs : 1
sigFpe : Enabling floating point exception trapping (FOAM_SIGFPE).
fileModificationChecking : Monitoring run-time modified files using timeStampMaster (fileModificationSkew 10)
allowSystemOperations : Allowing user-supplied system call operations

// * * * * * * * * * * * * * * * * * * * * * * * * * * * * * * * * * * * * * //
Create time

Create mesh for time = 0


SIMPLE: Convergence criteria found
        p: tolerance 1e-05
        U: tolerance 1e-05
        nuTilda: tolerance 1e-05

Reading field p

Reading field U

Reading/calculating face flux field phi

Selecting incompressible transport model Newtonian
Selecting turbulence model type RAS
Selecting RAS turbulence model SpalartAllmaras
Selecting patchDistMethod meshWave
RAS
{
    model           SpalartAllmaras;
    turbulence      on;
    printCoeffs     on;
    sigmaNut        0.66666;
    kappa           0.41;
    Cb1             0.1355;
    Cb2             0.622;
    Cw2             0.3;
    Cw3             2;
    Cv1             7.1;
    Cs              0.3;
}

No MRF models present

No finite volume options present

Starting time loop

Time = 1

[OGL LOG] init_host_sparsity_pattern : 32 ms
[OGL LOG] matrix not stored update host matrix
[OGL LOG] update_host_mtx : 15 ms
[OGL LOG] matrix is not yet sorted, compute sorting idxs
[OGL LOG] compute_sort : 1033 ms
[OGL LOG] matrix is not yet sorted, sorting host matrix
[OGL LOG] sort_host_mtx_sparsity_pattern : 21 ms
[OGL LOG] sort_host_mtx : 12 ms
[OGL LOG] init_preconditioner : 13 ms
[OGL LOG] solve : 112 ms
BJompGKOBiCGStab:  Solving for Ux, Initial residual = 130.613, Final residual = 0.127943, No Iterations 9
[OGL LOG] init_host_sparsity_pattern : 34 ms
[OGL LOG] matrix not stored update host matrix
[OGL LOG] update_host_mtx : 15 ms
[OGL LOG] matrix is not yet sorted, sorting host matrix
[OGL LOG] sort_host_mtx_sparsity_pattern : 21 ms
[OGL LOG] sort_host_mtx : 13 ms
[OGL LOG] init_preconditioner : 3 ms
[OGL LOG] solve : 53 ms
BJompGKOBiCGStab:  Solving for Uy, Initial residual = 134.003, Final residual = 0.131197, No Iterations 9
[OGL LOG] init_host_sparsity_pattern : 32 ms
[OGL LOG] matrix not stored update host matrix
[OGL LOG] update_host_mtx : 16 ms
[OGL LOG] matrix is not yet sorted, sorting host matrix
[OGL LOG] sort_host_mtx_sparsity_pattern : 21 ms
[OGL LOG] sort_host_mtx : 13 ms
[OGL LOG] init_preconditioner : 3 ms
 CG create  precond 
[OGL LOG] solve : 2544 ms
BJompGKOCG:  Solving for p, Initial residual = 1, Final residual = 0.0112407, No Iterations 1000
time step continuity errors : sum local = 0.00067962, global = -8.74682e-07, cumulative = -8.74682e-07
smoothSolver:  Solving for nuTilda, Initial residual = 1, Final residual = 0.0424232, No Iterations 2
ExecutionTime = 177.56 s  ClockTime = 5 s

Time = 2

[OGL LOG] init_host_sparsity_pattern : 32 ms
[OGL LOG] matrix not stored update host matrix
[OGL LOG] update_host_mtx : 15 ms
[OGL LOG] matrix is not yet sorted, sorting host matrix
[OGL LOG] sort_host_mtx_sparsity_pattern : 24 ms
[OGL LOG] sort_host_mtx : 12 ms
[OGL LOG] init_preconditioner : 0 ms
[OGL LOG] solve : 78 ms
BJompGKOBiCGStab:  Solving for Ux, Initial residual = 0.602504, Final residual = 0.00054421, No Iterations 12
[OGL LOG] init_host_sparsity_pattern : 33 ms
[OGL LOG] matrix not stored update host matrix
[OGL LOG] update_host_mtx : 15 ms
[OGL LOG] matrix is not yet sorted, sorting host matrix
[OGL LOG] sort_host_mtx_sparsity_pattern : 21 ms
[OGL LOG] sort_host_mtx : 12 ms
[OGL LOG] init_preconditioner : 0 ms
[OGL LOG] solve : 69 ms
BJompGKOBiCGStab:  Solving for Uy, Initial residual = 0.725846, Final residual = 0.000529337, No Iterations 11
[OGL LOG] init_host_sparsity_pattern : 32 ms
[OGL LOG] matrix not stored update host matrix
[OGL LOG] update_host_mtx : 16 ms
[OGL LOG] matrix is not yet sorted, sorting host matrix
[OGL LOG] sort_host_mtx_sparsity_pattern : 21 ms
[OGL LOG] sort_host_mtx : 13 ms
[OGL LOG] init_preconditioner : 0 ms
 CG create  precond 
[OGL LOG] solve : 2672 ms
BJompGKOCG:  Solving for p, Initial residual = 0.147981, Final residual = 0.00728948, No Iterations 1000
time step continuity errors : sum local = 0.00193792, global = -4.32927e-05, cumulative = -4.41673e-05
smoothSolver:  Solving for nuTilda, Initial residual = 0.0991319, Final residual = 0.00378922, No Iterations 4
ExecutionTime = 359.88 s  ClockTime = 9 s

Time = 3

[OGL LOG] init_host_sparsity_pattern : 32 ms
[OGL LOG] matrix not stored update host matrix
[OGL LOG] update_host_mtx : 15 ms
[OGL LOG] matrix is not yet sorted, sorting host matrix
[OGL LOG] sort_host_mtx_sparsity_pattern : 22 ms
[OGL LOG] sort_host_mtx : 12 ms
[OGL LOG] init_preconditioner : 0 ms
[OGL LOG] solve : 71 ms
BJompGKOBiCGStab:  Solving for Ux, Initial residual = 0.232091, Final residual = 0.000205203, No Iterations 11
[OGL LOG] init_host_sparsity_pattern : 34 ms
[OGL LOG] matrix not stored update host matrix
[OGL LOG] update_host_mtx : 15 ms
[OGL LOG] matrix is not yet sorted, sorting host matrix
[OGL LOG] sort_host_mtx_sparsity_pattern : 21 ms
[OGL LOG] sort_host_mtx : 13 ms
[OGL LOG] init_preconditioner : 0 ms
[OGL LOG] solve : 71 ms
BJompGKOBiCGStab:  Solving for Uy, Initial residual = 0.164689, Final residual = 0.000123699, No Iterations 11
[OGL LOG] init_host_sparsity_pattern : 32 ms
[OGL LOG] matrix not stored update host matrix
[OGL LOG] update_host_mtx : 16 ms
[OGL LOG] matrix is not yet sorted, sorting host matrix
[OGL LOG] sort_host_mtx_sparsity_pattern : 21 ms
[OGL LOG] sort_host_mtx : 13 ms
[OGL LOG] init_preconditioner : 0 ms
 CG create  precond 
[OGL LOG] solve : 2954 ms
BJompGKOCG:  Solving for p, Initial residual = 0.108024, Final residual = 0.00782606, No Iterations 1000
time step continuity errors : sum local = 0.00195923, global = 7.08568e-05, cumulative = 2.66895e-05
smoothSolver:  Solving for nuTilda, Initial residual = 0.0703864, Final residual = 0.00340791, No Iterations 4
ExecutionTime = 560.01 s  ClockTime = 12 s

Time = 4

[OGL LOG] init_host_sparsity_pattern : 32 ms
[OGL LOG] matrix not stored update host matrix
[OGL LOG] update_host_mtx : 15 ms
[OGL LOG] matrix is not yet sorted, sorting host matrix
[OGL LOG] sort_host_mtx_sparsity_pattern : 22 ms
[OGL LOG] sort_host_mtx : 13 ms
[OGL LOG] init_preconditioner : 0 ms
[OGL LOG] solve : 72 ms
BJompGKOBiCGStab:  Solving for Ux, Initial residual = 0.177747, Final residual = 0.000168378, No Iterations 11
[OGL LOG] init_host_sparsity_pattern : 33 ms
[OGL LOG] matrix not stored update host matrix
[OGL LOG] update_host_mtx : 15 ms
[OGL LOG] matrix is not yet sorted, sorting host matrix
[OGL LOG] sort_host_mtx_sparsity_pattern : 21 ms
[OGL LOG] sort_host_mtx : 13 ms
[OGL LOG] init_preconditioner : 0 ms
[OGL LOG] solve : 69 ms
BJompGKOBiCGStab:  Solving for Uy, Initial residual = 0.131946, Final residual = 9.84711e-05, No Iterations 11
[OGL LOG] init_host_sparsity_pattern : 32 ms
[OGL LOG] matrix not stored update host matrix
[OGL LOG] update_host_mtx : 16 ms
[OGL LOG] matrix is not yet sorted, sorting host matrix
[OGL LOG] sort_host_mtx_sparsity_pattern : 21 ms
[OGL LOG] sort_host_mtx : 13 ms
[OGL LOG] init_preconditioner : 0 ms
 CG create  precond 
[OGL LOG] solve : 2937 ms
BJompGKOCG:  Solving for p, Initial residual = 0.287642, Final residual = 0.0247203, No Iterations 1000
time step continuity errors : sum local = 0.00251877, global = 0.000212114, cumulative = 0.000238804
smoothSolver:  Solving for nuTilda, Initial residual = 0.0653939, Final residual = 0.00322874, No Iterations 4
ExecutionTime = 758.82 s  ClockTime = 16 s

Time = 5

[OGL LOG] init_host_sparsity_pattern : 32 ms
[OGL LOG] matrix not stored update host matrix
[OGL LOG] update_host_mtx : 15 ms
[OGL LOG] matrix is not yet sorted, sorting host matrix
[OGL LOG] sort_host_mtx_sparsity_pattern : 21 ms
[OGL LOG] sort_host_mtx : 13 ms
[OGL LOG] init_preconditioner : 0 ms
[OGL LOG] solve : 61 ms
BJompGKOBiCGStab:  Solving for Ux, Initial residual = 0.220102, Final residual = 0.000204873, No Iterations 11
[OGL LOG] init_host_sparsity_pattern : 33 ms
[OGL LOG] matrix not stored update host matrix
[OGL LOG] update_host_mtx : 15 ms
[OGL LOG] matrix is not yet sorted, sorting host matrix
[OGL LOG] sort_host_mtx_sparsity_pattern : 21 ms
[OGL LOG] sort_host_mtx : 13 ms
[OGL LOG] init_preconditioner : 0 ms
[OGL LOG] solve : 61 ms
BJompGKOBiCGStab:  Solving for Uy, Initial residual = 0.195644, Final residual = 0.000111724, No Iterations 11
[OGL LOG] init_host_sparsity_pattern : 32 ms
[OGL LOG] matrix not stored update host matrix
[OGL LOG] update_host_mtx : 16 ms
[OGL LOG] matrix is not yet sorted, sorting host matrix
[OGL LOG] sort_host_mtx_sparsity_pattern : 21 ms
[OGL LOG] sort_host_mtx : 13 ms
[OGL LOG] init_preconditioner : 0 ms
 CG create  precond 
[OGL LOG] solve : 2642 ms
BJompGKOCG:  Solving for p, Initial residual = 0.163405, Final residual = 0.0188164, No Iterations 1000
time step continuity errors : sum local = 0.00326103, global = 0.000216362, cumulative = 0.000455165
smoothSolver:  Solving for nuTilda, Initial residual = 0.062237, Final residual = 0.00307294, No Iterations 4
ExecutionTime = 937.5 s  ClockTime = 19 s

End

