/*---------------------------------------------------------------------------*\
  =========                 |
  \\      /  F ield         | OpenFOAM: The Open Source CFD Toolbox
   \\    /   O peration     | Website:  https://openfoam.org
    \\  /    A nd           | Version:  8
     \\/     M anipulation  |
\*---------------------------------------------------------------------------*/
Build  : 8-13d66902f78c
Exec   : simpleFoam
Date   : Jul 04 2021
Time   : 11:12:29
Host   : "uc2n390.localdomain"
PID    : 2137874
I/O    : uncollated
Case   : /pfs/data5/home/kit/scc/nq7776/code/OGL_DATA/airFoil2D/v0.1-136-g40fef35/f584ccac99/IntelXeonGold6230CPU@2.10GHz/Test_2021-07-04-10:23:35/2/p-U-BiCGStab-GKO-BJ-omp/airFoil2D
nProcs : 1
sigFpe : Enabling floating point exception trapping (FOAM_SIGFPE).
fileModificationChecking : Monitoring run-time modified files using timeStampMaster (fileModificationSkew 10)
allowSystemOperations : Allowing user-supplied system call operations

// * * * * * * * * * * * * * * * * * * * * * * * * * * * * * * * * * * * * * //
Create time

Create mesh for time = 0


SIMPLE: Convergence criteria found
        p: tolerance 1e-05
        U: tolerance 1e-05
        nuTilda: tolerance 1e-05

Reading field p

Reading field U

Reading/calculating face flux field phi

Selecting incompressible transport model Newtonian
Selecting turbulence model type RAS
Selecting RAS turbulence model SpalartAllmaras
Selecting patchDistMethod meshWave
RAS
{
    model           SpalartAllmaras;
    turbulence      on;
    printCoeffs     on;
    sigmaNut        0.66666;
    kappa           0.41;
    Cb1             0.1355;
    Cb2             0.622;
    Cw2             0.3;
    Cw3             2;
    Cv1             7.1;
    Cs              0.3;
}

No MRF models present

No finite volume options present

Starting time loop

Time = 1

[OGL LOG] init_host_sparsity_pattern : 32 ms
[OGL LOG] matrix not stored update host matrix
[OGL LOG] update_host_mtx : 15 ms
[OGL LOG] matrix is not yet sorted, compute sorting idxs
[OGL LOG] compute_sort : 1035 ms
[OGL LOG] matrix is not yet sorted, sorting host matrix
[OGL LOG] sort_host_mtx_sparsity_pattern : 21 ms
[OGL LOG] sort_host_mtx : 12 ms
[OGL LOG] init_preconditioner : 5 ms
[OGL LOG] solve : 60 ms
BJompGKOBiCGStab:  Solving for Ux, Initial residual = 130.613, Final residual = 0.127943, No Iterations 9
[OGL LOG] init_host_sparsity_pattern : 34 ms
[OGL LOG] matrix not stored update host matrix
[OGL LOG] update_host_mtx : 16 ms
[OGL LOG] matrix is not yet sorted, sorting host matrix
[OGL LOG] sort_host_mtx_sparsity_pattern : 21 ms
[OGL LOG] sort_host_mtx : 12 ms
[OGL LOG] init_preconditioner : 4 ms
[OGL LOG] solve : 59 ms
BJompGKOBiCGStab:  Solving for Uy, Initial residual = 134.003, Final residual = 0.131197, No Iterations 9
[OGL LOG] init_host_sparsity_pattern : 32 ms
[OGL LOG] matrix not stored update host matrix
[OGL LOG] update_host_mtx : 16 ms
[OGL LOG] matrix is not yet sorted, sorting host matrix
[OGL LOG] sort_host_mtx_sparsity_pattern : 23 ms
[OGL LOG] sort_host_mtx : 13 ms
[OGL LOG] init_preconditioner : 4 ms
[OGL LOG] solve : 5108 ms
BJompGKOBiCGStab:  Solving for p, Initial residual = 1, Final residual = 0.000849987, No Iterations 972
time step continuity errors : sum local = 0.000110466, global = -2.78685e-06, cumulative = -2.78685e-06
smoothSolver:  Solving for nuTilda, Initial residual = 1, Final residual = 0.0424158, No Iterations 2
ExecutionTime = 170.53 s  ClockTime = 8 s

Time = 2

[OGL LOG] init_host_sparsity_pattern : 32 ms
[OGL LOG] matrix not stored update host matrix
[OGL LOG] update_host_mtx : 15 ms
[OGL LOG] matrix is not yet sorted, sorting host matrix
[OGL LOG] sort_host_mtx_sparsity_pattern : 22 ms
[OGL LOG] sort_host_mtx : 13 ms
[OGL LOG] init_preconditioner : 0 ms
[OGL LOG] solve : 67 ms
BJompGKOBiCGStab:  Solving for Ux, Initial residual = 0.601786, Final residual = 0.00054139, No Iterations 12
[OGL LOG] init_host_sparsity_pattern : 33 ms
[OGL LOG] matrix not stored update host matrix
[OGL LOG] update_host_mtx : 15 ms
[OGL LOG] matrix is not yet sorted, sorting host matrix
[OGL LOG] sort_host_mtx_sparsity_pattern : 21 ms
[OGL LOG] sort_host_mtx : 13 ms
[OGL LOG] init_preconditioner : 0 ms
[OGL LOG] solve : 64 ms
BJompGKOBiCGStab:  Solving for Uy, Initial residual = 0.724157, Final residual = 0.000526286, No Iterations 11
[OGL LOG] init_host_sparsity_pattern : 32 ms
[OGL LOG] matrix not stored update host matrix
[OGL LOG] update_host_mtx : 16 ms
[OGL LOG] matrix is not yet sorted, sorting host matrix
[OGL LOG] sort_host_mtx_sparsity_pattern : 23 ms
[OGL LOG] sort_host_mtx : 13 ms
[OGL LOG] init_preconditioner : 0 ms
[OGL LOG] solve : 4903 ms
BJompGKOBiCGStab:  Solving for p, Initial residual = 0.146232, Final residual = 0.000441126, No Iterations 1000
time step continuity errors : sum local = 0.000117974, global = -9.56532e-06, cumulative = -1.23522e-05
smoothSolver:  Solving for nuTilda, Initial residual = 0.099108, Final residual = 0.0037852, No Iterations 4
ExecutionTime = 332.48 s  ClockTime = 14 s

Time = 3

[OGL LOG] init_host_sparsity_pattern : 32 ms
[OGL LOG] matrix not stored update host matrix
[OGL LOG] update_host_mtx : 15 ms
[OGL LOG] matrix is not yet sorted, sorting host matrix
[OGL LOG] sort_host_mtx_sparsity_pattern : 22 ms
[OGL LOG] sort_host_mtx : 12 ms
[OGL LOG] init_preconditioner : 0 ms
[OGL LOG] solve : 82 ms
BJompGKOBiCGStab:  Solving for Ux, Initial residual = 0.232719, Final residual = 0.000173616, No Iterations 11
[OGL LOG] init_host_sparsity_pattern : 33 ms
[OGL LOG] matrix not stored update host matrix
[OGL LOG] update_host_mtx : 15 ms
[OGL LOG] matrix is not yet sorted, sorting host matrix
[OGL LOG] sort_host_mtx_sparsity_pattern : 21 ms
[OGL LOG] sort_host_mtx : 12 ms
[OGL LOG] init_preconditioner : 0 ms
[OGL LOG] solve : 69 ms
BJompGKOBiCGStab:  Solving for Uy, Initial residual = 0.165443, Final residual = 0.000132013, No Iterations 11
[OGL LOG] init_host_sparsity_pattern : 32 ms
[OGL LOG] matrix not stored update host matrix
[OGL LOG] update_host_mtx : 16 ms
[OGL LOG] matrix is not yet sorted, sorting host matrix
[OGL LOG] sort_host_mtx_sparsity_pattern : 23 ms
[OGL LOG] sort_host_mtx : 12 ms
[OGL LOG] init_preconditioner : 0 ms
[OGL LOG] solve : 4743 ms
BJompGKOBiCGStab:  Solving for p, Initial residual = 0.100783, Final residual = 0.001115, No Iterations 1000
time step continuity errors : sum local = 0.000279349, global = 7.15743e-05, cumulative = 5.92221e-05
smoothSolver:  Solving for nuTilda, Initial residual = 0.0703365, Final residual = 0.00340323, No Iterations 4
ExecutionTime = 490.01 s  ClockTime = 19 s

Time = 4

[OGL LOG] init_host_sparsity_pattern : 32 ms
[OGL LOG] matrix not stored update host matrix
[OGL LOG] update_host_mtx : 15 ms
[OGL LOG] matrix is not yet sorted, sorting host matrix
[OGL LOG] sort_host_mtx_sparsity_pattern : 22 ms
[OGL LOG] sort_host_mtx : 12 ms
[OGL LOG] init_preconditioner : 0 ms
[OGL LOG] solve : 68 ms
BJompGKOBiCGStab:  Solving for Ux, Initial residual = 0.181551, Final residual = 0.000132621, No Iterations 12
[OGL LOG] init_host_sparsity_pattern : 33 ms
[OGL LOG] matrix not stored update host matrix
[OGL LOG] update_host_mtx : 15 ms
[OGL LOG] matrix is not yet sorted, sorting host matrix
[OGL LOG] sort_host_mtx_sparsity_pattern : 21 ms
[OGL LOG] sort_host_mtx : 12 ms
[OGL LOG] init_preconditioner : 0 ms
[OGL LOG] solve : 62 ms
BJompGKOBiCGStab:  Solving for Uy, Initial residual = 0.133601, Final residual = 9.94201e-05, No Iterations 11
[OGL LOG] init_host_sparsity_pattern : 32 ms
[OGL LOG] matrix not stored update host matrix
[OGL LOG] update_host_mtx : 15 ms
[OGL LOG] matrix is not yet sorted, sorting host matrix
[OGL LOG] sort_host_mtx_sparsity_pattern : 23 ms
[OGL LOG] sort_host_mtx : 13 ms
[OGL LOG] init_preconditioner : 0 ms
[OGL LOG] solve : 4654 ms
BJompGKOBiCGStab:  Solving for p, Initial residual = 0.27843, Final residual = 0.00430805, No Iterations 1000
time step continuity errors : sum local = 0.000435826, global = 0.000198443, cumulative = 0.000257665
smoothSolver:  Solving for nuTilda, Initial residual = 0.0652325, Final residual = 0.00322006, No Iterations 4
ExecutionTime = 644.02 s  ClockTime = 24 s

Time = 5

[OGL LOG] init_host_sparsity_pattern : 32 ms
[OGL LOG] matrix not stored update host matrix
[OGL LOG] update_host_mtx : 15 ms
[OGL LOG] matrix is not yet sorted, sorting host matrix
[OGL LOG] sort_host_mtx_sparsity_pattern : 21 ms
[OGL LOG] sort_host_mtx : 12 ms
[OGL LOG] init_preconditioner : 0 ms
[OGL LOG] solve : 52 ms
BJompGKOBiCGStab:  Solving for Ux, Initial residual = 0.215596, Final residual = 0.000199886, No Iterations 11
[OGL LOG] init_host_sparsity_pattern : 33 ms
[OGL LOG] matrix not stored update host matrix
[OGL LOG] update_host_mtx : 16 ms
[OGL LOG] matrix is not yet sorted, sorting host matrix
[OGL LOG] sort_host_mtx_sparsity_pattern : 21 ms
[OGL LOG] sort_host_mtx : 12 ms
[OGL LOG] init_preconditioner : 0 ms
[OGL LOG] solve : 54 ms
BJompGKOBiCGStab:  Solving for Uy, Initial residual = 0.188582, Final residual = 0.000114924, No Iterations 11
[OGL LOG] init_host_sparsity_pattern : 32 ms
[OGL LOG] matrix not stored update host matrix
[OGL LOG] update_host_mtx : 16 ms
[OGL LOG] matrix is not yet sorted, sorting host matrix
[OGL LOG] sort_host_mtx_sparsity_pattern : 23 ms
[OGL LOG] sort_host_mtx : 13 ms
[OGL LOG] init_preconditioner : 0 ms
[OGL LOG] solve : 4534 ms
BJompGKOBiCGStab:  Solving for p, Initial residual = 0.157483, Final residual = 0.0015284, No Iterations 1000
time step continuity errors : sum local = 0.000256736, global = 0.000138407, cumulative = 0.000396072
smoothSolver:  Solving for nuTilda, Initial residual = 0.0619855, Final residual = 0.00306562, No Iterations 4
ExecutionTime = 793.47 s  ClockTime = 29 s

End

