/*---------------------------------------------------------------------------*\
  =========                 |
  \\      /  F ield         | OpenFOAM: The Open Source CFD Toolbox
   \\    /   O peration     | Website:  https://openfoam.org
    \\  /    A nd           | Version:  8
     \\/     M anipulation  |
\*---------------------------------------------------------------------------*/
Build  : 8-13d66902f78c
Exec   : simpleFoam
Date   : Jul 04 2021
Time   : 10:22:24
Host   : "uc2n430.localdomain"
PID    : 2471139
I/O    : uncollated
Case   : /pfs/data5/home/kit/scc/nq7776/code/OGL_DATA/airFoil2D/v0.1-136-g40fef35/f584ccac99/IntelXeonGold6230CPU@2.10GHz/Test_2021-07-04-09:37:33/2/p-BiCGStab-GKO-BJ-omp/airFoil2D
nProcs : 1
sigFpe : Enabling floating point exception trapping (FOAM_SIGFPE).
fileModificationChecking : Monitoring run-time modified files using timeStampMaster (fileModificationSkew 10)
allowSystemOperations : Allowing user-supplied system call operations

// * * * * * * * * * * * * * * * * * * * * * * * * * * * * * * * * * * * * * //
Create time

Create mesh for time = 0


SIMPLE: Convergence criteria found
        p: tolerance 1e-05
        U: tolerance 1e-05
        nuTilda: tolerance 1e-05

Reading field p

Reading field U

Reading/calculating face flux field phi

Selecting incompressible transport model Newtonian
Selecting turbulence model type RAS
Selecting RAS turbulence model SpalartAllmaras
Selecting patchDistMethod meshWave
RAS
{
    model           SpalartAllmaras;
    turbulence      on;
    printCoeffs     on;
    sigmaNut        0.66666;
    kappa           0.41;
    Cb1             0.1355;
    Cb2             0.622;
    Cw2             0.3;
    Cw3             2;
    Cv1             7.1;
    Cs              0.3;
}

No MRF models present

No finite volume options present

Starting time loop

Time = 1

smoothSolver:  Solving for Ux, Initial residual = 1, Final residual = 0.000411552, No Iterations 14
smoothSolver:  Solving for Uy, Initial residual = 1, Final residual = 0.000303455, No Iterations 14
[OGL LOG] init_host_sparsity_pattern : 32 ms
[OGL LOG] matrix not stored update host matrix
[OGL LOG] update_host_mtx : 16 ms
[OGL LOG] matrix is not yet sorted, compute sorting idxs
[OGL LOG] compute_sort : 1045 ms
[OGL LOG] matrix is not yet sorted, sorting host matrix
[OGL LOG] sort_host_mtx_sparsity_pattern : 21 ms
[OGL LOG] sort_host_mtx : 12 ms
[OGL LOG] init_preconditioner : 8 ms
[OGL LOG] solve : 6734 ms
BJompGKOBiCGStab:  Solving for p, Initial residual = 1, Final residual = 0.0202452, No Iterations 1000
time step continuity errors : sum local = 3.90324e-05, global = -7.42854e-07, cumulative = -7.42854e-07
smoothSolver:  Solving for nuTilda, Initial residual = 1, Final residual = 0.0325229, No Iterations 2
ExecutionTime = 56.27 s  ClockTime = 9 s

Time = 2

smoothSolver:  Solving for Ux, Initial residual = 0.596626, Final residual = 0.000577085, No Iterations 10
smoothSolver:  Solving for Uy, Initial residual = 0.587284, Final residual = 0.00056931, No Iterations 10
[OGL LOG] init_host_sparsity_pattern : 32 ms
[OGL LOG] matrix not stored update host matrix
[OGL LOG] update_host_mtx : 15 ms
[OGL LOG] matrix is not yet sorted, sorting host matrix
[OGL LOG] sort_host_mtx_sparsity_pattern : 24 ms
[OGL LOG] sort_host_mtx : 12 ms
[OGL LOG] init_preconditioner : 0 ms
[OGL LOG] solve : 6790 ms
BJompGKOBiCGStab:  Solving for p, Initial residual = 0.0659055, Final residual = 0.000963265, No Iterations 1000
time step continuity errors : sum local = 0.000158452, global = -9.2024e-05, cumulative = -9.27668e-05
smoothSolver:  Solving for nuTilda, Initial residual = 0.0652189, Final residual = 0.0016908, No Iterations 4
ExecutionTime = 110.36 s  ClockTime = 16 s

Time = 3

smoothSolver:  Solving for Ux, Initial residual = 0.17547, Final residual = 0.000170014, No Iterations 10
smoothSolver:  Solving for Uy, Initial residual = 0.139001, Final residual = 0.000134676, No Iterations 10
[OGL LOG] init_host_sparsity_pattern : 32 ms
[OGL LOG] matrix not stored update host matrix
[OGL LOG] update_host_mtx : 16 ms
[OGL LOG] matrix is not yet sorted, sorting host matrix
[OGL LOG] sort_host_mtx_sparsity_pattern : 21 ms
[OGL LOG] sort_host_mtx : 13 ms
[OGL LOG] init_preconditioner : 0 ms
[OGL LOG] solve : 6715 ms
BJompGKOBiCGStab:  Solving for p, Initial residual = 0.034564, Final residual = 0.00189482, No Iterations 1000
time step continuity errors : sum local = 0.000189835, global = -0.000128518, cumulative = -0.000221285
smoothSolver:  Solving for nuTilda, Initial residual = 0.0273607, Final residual = 0.0012208, No Iterations 4
ExecutionTime = 164.33 s  ClockTime = 23 s

Time = 4

smoothSolver:  Solving for Ux, Initial residual = 0.0644344, Final residual = 6.0469e-05, No Iterations 10
smoothSolver:  Solving for Uy, Initial residual = 0.0541037, Final residual = 5.13007e-05, No Iterations 10
[OGL LOG] init_host_sparsity_pattern : 32 ms
[OGL LOG] matrix not stored update host matrix
[OGL LOG] update_host_mtx : 15 ms
[OGL LOG] matrix is not yet sorted, sorting host matrix
[OGL LOG] sort_host_mtx_sparsity_pattern : 24 ms
[OGL LOG] sort_host_mtx : 12 ms
[OGL LOG] init_preconditioner : 0 ms
[OGL LOG] solve : 6651 ms
BJompGKOBiCGStab:  Solving for p, Initial residual = 0.112803, Final residual = 0.00151386, No Iterations 1000
time step continuity errors : sum local = 8.97616e-05, global = -6.39656e-05, cumulative = -0.000285251
smoothSolver:  Solving for nuTilda, Initial residual = 0.019258, Final residual = 0.000916276, No Iterations 4
ExecutionTime = 217.8 s  ClockTime = 30 s

Time = 5

smoothSolver:  Solving for Ux, Initial residual = 0.225096, Final residual = 0.000217178, No Iterations 10
smoothSolver:  Solving for Uy, Initial residual = 0.179232, Final residual = 0.000173215, No Iterations 10
[OGL LOG] init_host_sparsity_pattern : 32 ms
[OGL LOG] matrix not stored update host matrix
[OGL LOG] update_host_mtx : 16 ms
[OGL LOG] matrix is not yet sorted, sorting host matrix
[OGL LOG] sort_host_mtx_sparsity_pattern : 22 ms
[OGL LOG] sort_host_mtx : 13 ms
[OGL LOG] init_preconditioner : 0 ms
[OGL LOG] solve : 6851 ms
BJompGKOBiCGStab:  Solving for p, Initial residual = 0.04892, Final residual = 0.00177832, No Iterations 1000
time step continuity errors : sum local = 0.000195021, global = 1.89412e-05, cumulative = -0.00026631
smoothSolver:  Solving for nuTilda, Initial residual = 0.0143235, Final residual = 0.00070618, No Iterations 4
ExecutionTime = 272.91 s  ClockTime = 38 s

End

