/*---------------------------------------------------------------------------*\
  =========                 |
  \\      /  F ield         | OpenFOAM: The Open Source CFD Toolbox
   \\    /   O peration     | Website:  https://openfoam.org
    \\  /    A nd           | Version:  8
     \\/     M anipulation  |
\*---------------------------------------------------------------------------*/
Build  : 8-13d66902f78c
Exec   : simpleFoam
Date   : Jul 05 2021
Time   : 12:17:00
Host   : "uc2n462.localdomain"
PID    : 3318220
I/O    : uncollated
Case   : /pfs/data5/home/kit/scc/nq7776/code/OGL_DATA/airFoil2D/v0.1-136-g40fef35/f584ccac99/IntelXeonGold6230CPU@2.10GHz/Test_2021-07-05-12:00:45/2/p-BiCGStab-GKO-none-omp/airFoil2D
nProcs : 1
sigFpe : Enabling floating point exception trapping (FOAM_SIGFPE).
fileModificationChecking : Monitoring run-time modified files using timeStampMaster (fileModificationSkew 10)
allowSystemOperations : Allowing user-supplied system call operations

// * * * * * * * * * * * * * * * * * * * * * * * * * * * * * * * * * * * * * //
Create time

Create mesh for time = 0


SIMPLE: Convergence criteria found
        p: tolerance 1e-05
        U: tolerance 1e-05
        nuTilda: tolerance 1e-05

Reading field p

Reading field U

Reading/calculating face flux field phi

Selecting incompressible transport model Newtonian
Selecting turbulence model type RAS
Selecting RAS turbulence model SpalartAllmaras
Selecting patchDistMethod meshWave
RAS
{
    model           SpalartAllmaras;
    turbulence      on;
    printCoeffs     on;
    sigmaNut        0.66666;
    kappa           0.41;
    Cb1             0.1355;
    Cb2             0.622;
    Cw2             0.3;
    Cw3             2;
    Cv1             7.1;
    Cs              0.3;
}

No MRF models present

No finite volume options present

Starting time loop

Time = 1

smoothSolver:  Solving for Ux, Initial residual = 1, Final residual = 0.000411552, No Iterations 14
smoothSolver:  Solving for Uy, Initial residual = 1, Final residual = 0.000303455, No Iterations 14
[OGL LOG] init_host_sparsity_pattern : 32 ms
[OGL LOG] matrix not stored update host matrix
[OGL LOG] update_host_mtx : 16 ms
[OGL LOG] matrix is not yet sorted, compute sorting idxs
[OGL LOG] compute_sort : 1035 ms
[OGL LOG] matrix is not yet sorted, sorting host matrix
[OGL LOG] sort_host_mtx_sparsity_pattern : 21 ms
[OGL LOG] sort_host_mtx : 12 ms
[OGL LOG] init_preconditioner : 0 ms
[OGL LOG] solve : 9378 ms
noneompGKOBiCGStab:  Solving for p, Initial residual = 1, Final residual = 1.02956, No Iterations 1000
time step continuity errors : sum local = 0.00198496, global = 1.93436e-09, cumulative = 1.93436e-09
smoothSolver:  Solving for nuTilda, Initial residual = 1, Final residual = 0.0320408, No Iterations 2
ExecutionTime = 11.71 s  ClockTime = 12 s

Time = 2

smoothSolver:  Solving for Ux, Initial residual = 0.371022, Final residual = 0.000341666, No Iterations 10
smoothSolver:  Solving for Uy, Initial residual = 0.353488, Final residual = 0.000329529, No Iterations 10
[OGL LOG] init_host_sparsity_pattern : 32 ms
[OGL LOG] matrix not stored update host matrix
[OGL LOG] update_host_mtx : 15 ms
[OGL LOG] matrix is not yet sorted, sorting host matrix
[OGL LOG] sort_host_mtx_sparsity_pattern : 21 ms
[OGL LOG] sort_host_mtx : 13 ms
[OGL LOG] init_preconditioner : 0 ms
[OGL LOG] solve : 9304 ms
noneompGKOBiCGStab:  Solving for p, Initial residual = 1.71786, Final residual = 0.120901, No Iterations 1000
time step continuity errors : sum local = 0.000804213, global = -0.000414961, cumulative = -0.00041496
smoothSolver:  Solving for nuTilda, Initial residual = 0.0626953, Final residual = 0.00140821, No Iterations 4
ExecutionTime = 21.28 s  ClockTime = 22 s

Time = 3

smoothSolver:  Solving for Ux, Initial residual = 0.207291, Final residual = 0.000196151, No Iterations 10
smoothSolver:  Solving for Uy, Initial residual = 0.150153, Final residual = 0.000143801, No Iterations 10
[OGL LOG] init_host_sparsity_pattern : 32 ms
[OGL LOG] matrix not stored update host matrix
[OGL LOG] update_host_mtx : 15 ms
[OGL LOG] matrix is not yet sorted, sorting host matrix
[OGL LOG] sort_host_mtx_sparsity_pattern : 21 ms
[OGL LOG] sort_host_mtx : 13 ms
[OGL LOG] init_preconditioner : 0 ms
[OGL LOG] solve : 9300 ms
noneompGKOBiCGStab:  Solving for p, Initial residual = 0.394961, Final residual = 0.0834524, No Iterations 1000
time step continuity errors : sum local = 0.00110897, global = -0.000797012, cumulative = -0.00121197
smoothSolver:  Solving for nuTilda, Initial residual = 0.0251268, Final residual = 0.00110327, No Iterations 4
ExecutionTime = 30.84 s  ClockTime = 31 s

Time = 4

smoothSolver:  Solving for Ux, Initial residual = 0.197798, Final residual = 0.000187571, No Iterations 10
smoothSolver:  Solving for Uy, Initial residual = 0.146645, Final residual = 0.000140534, No Iterations 10
[OGL LOG] init_host_sparsity_pattern : 32 ms
[OGL LOG] matrix not stored update host matrix
[OGL LOG] update_host_mtx : 15 ms
[OGL LOG] matrix is not yet sorted, sorting host matrix
[OGL LOG] sort_host_mtx_sparsity_pattern : 21 ms
[OGL LOG] sort_host_mtx : 13 ms
[OGL LOG] init_preconditioner : 0 ms
[OGL LOG] solve : 9304 ms
noneompGKOBiCGStab:  Solving for p, Initial residual = 0.13019, Final residual = 0.0269117, No Iterations 1000
time step continuity errors : sum local = 0.00164839, global = 3.50824e-05, cumulative = -0.00117689
smoothSolver:  Solving for nuTilda, Initial residual = 0.0194667, Final residual = 0.000994191, No Iterations 4
ExecutionTime = 40.42 s  ClockTime = 41 s

Time = 5

smoothSolver:  Solving for Ux, Initial residual = 0.162907, Final residual = 0.000157554, No Iterations 10
smoothSolver:  Solving for Uy, Initial residual = 0.148574, Final residual = 0.000143792, No Iterations 10
[OGL LOG] init_host_sparsity_pattern : 32 ms
[OGL LOG] matrix not stored update host matrix
[OGL LOG] update_host_mtx : 15 ms
[OGL LOG] matrix is not yet sorted, sorting host matrix
[OGL LOG] sort_host_mtx_sparsity_pattern : 21 ms
[OGL LOG] sort_host_mtx : 13 ms
[OGL LOG] init_preconditioner : 0 ms
[OGL LOG] solve : 9305 ms
noneompGKOBiCGStab:  Solving for p, Initial residual = 0.0631775, Final residual = 0.0215847, No Iterations 1000
time step continuity errors : sum local = 0.00358773, global = 0.000916808, cumulative = -0.000260082
smoothSolver:  Solving for nuTilda, Initial residual = 0.0157108, Final residual = 0.000863927, No Iterations 4
ExecutionTime = 50 s  ClockTime = 51 s

End

