/*---------------------------------------------------------------------------*\
  =========                 |
  \\      /  F ield         | OpenFOAM: The Open Source CFD Toolbox
   \\    /   O peration     | Website:  https://openfoam.org
    \\  /    A nd           | Version:  8
     \\/     M anipulation  |
\*---------------------------------------------------------------------------*/
Build  : 8-13d66902f78c
Exec   : simpleFoam
Date   : Jul 04 2021
Time   : 09:50:52
Host   : "uc2n452.localdomain"
PID    : 2588109
I/O    : uncollated
Case   : /pfs/data5/home/kit/scc/nq7776/code/OGL_DATA/airFoil2D/v0.1-136-g40fef35/f584ccac99/IntelXeonGold6230CPU@2.10GHz/Test_2021-07-04-09:25:23/2/p-CG-GKO-none-omp/airFoil2D
nProcs : 1
sigFpe : Enabling floating point exception trapping (FOAM_SIGFPE).
fileModificationChecking : Monitoring run-time modified files using timeStampMaster (fileModificationSkew 10)
allowSystemOperations : Allowing user-supplied system call operations

// * * * * * * * * * * * * * * * * * * * * * * * * * * * * * * * * * * * * * //
Create time

Create mesh for time = 0


SIMPLE: Convergence criteria found
        p: tolerance 1e-05
        U: tolerance 1e-05
        nuTilda: tolerance 1e-05

Reading field p

Reading field U

Reading/calculating face flux field phi

Selecting incompressible transport model Newtonian
Selecting turbulence model type RAS
Selecting RAS turbulence model SpalartAllmaras
Selecting patchDistMethod meshWave
RAS
{
    model           SpalartAllmaras;
    turbulence      on;
    printCoeffs     on;
    sigmaNut        0.66666;
    kappa           0.41;
    Cb1             0.1355;
    Cb2             0.622;
    Cw2             0.3;
    Cw3             2;
    Cv1             7.1;
    Cs              0.3;
}

No MRF models present

No finite volume options present

Starting time loop

Time = 1

smoothSolver:  Solving for Ux, Initial residual = 1, Final residual = 0.000411552, No Iterations 14
smoothSolver:  Solving for Uy, Initial residual = 1, Final residual = 0.000303455, No Iterations 14
[OGL LOG] init_host_sparsity_pattern : 32 ms
[OGL LOG] matrix not stored update host matrix
[OGL LOG] update_host_mtx : 16 ms
[OGL LOG] matrix is not yet sorted, compute sorting idxs
[OGL LOG] compute_sort : 1031 ms
[OGL LOG] matrix is not yet sorted, sorting host matrix
[OGL LOG] sort_host_mtx_sparsity_pattern : 21 ms
[OGL LOG] sort_host_mtx : 12 ms
[OGL LOG] init_preconditioner : 0 ms
[OGL LOG] solve : 2247 ms
noneompGKOCG:  Solving for p, Initial residual = 1, Final residual = 17.2732, No Iterations 1000
time step continuity errors : sum local = 0.0333025, global = 7.8307e-06, cumulative = 7.8307e-06
smoothSolver:  Solving for nuTilda, Initial residual = 1, Final residual = 0.0320847, No Iterations 2
ExecutionTime = 146.19 s  ClockTime = 4 s

Time = 2

smoothSolver:  Solving for Ux, Initial residual = 0.46076, Final residual = 0.000433296, No Iterations 10
smoothSolver:  Solving for Uy, Initial residual = 0.414455, Final residual = 0.000388347, No Iterations 10
[OGL LOG] init_host_sparsity_pattern : 32 ms
[OGL LOG] matrix not stored update host matrix
[OGL LOG] update_host_mtx : 15 ms
[OGL LOG] matrix is not yet sorted, sorting host matrix
[OGL LOG] sort_host_mtx_sparsity_pattern : 21 ms
[OGL LOG] sort_host_mtx : 12 ms
[OGL LOG] init_preconditioner : 0 ms
[OGL LOG] solve : 2164 ms
noneompGKOCG:  Solving for p, Initial residual = 2.27649, Final residual = 1.14118, No Iterations 1000
time step continuity errors : sum local = 0.0220568, global = -0.000781021, cumulative = -0.00077319
smoothSolver:  Solving for nuTilda, Initial residual = 0.0637279, Final residual = 0.00155788, No Iterations 4
ExecutionTime = 285.05 s  ClockTime = 7 s

Time = 3

smoothSolver:  Solving for Ux, Initial residual = 0.232799, Final residual = 0.000219232, No Iterations 10
smoothSolver:  Solving for Uy, Initial residual = 0.191281, Final residual = 0.00018412, No Iterations 10
[OGL LOG] init_host_sparsity_pattern : 32 ms
[OGL LOG] matrix not stored update host matrix
[OGL LOG] update_host_mtx : 15 ms
[OGL LOG] matrix is not yet sorted, sorting host matrix
[OGL LOG] sort_host_mtx_sparsity_pattern : 22 ms
[OGL LOG] sort_host_mtx : 12 ms
[OGL LOG] init_preconditioner : 0 ms
[OGL LOG] solve : 1961 ms
noneompGKOCG:  Solving for p, Initial residual = 0.802514, Final residual = 0.578277, No Iterations 1000
time step continuity errors : sum local = 0.0200697, global = -0.00063551, cumulative = -0.0014087
smoothSolver:  Solving for nuTilda, Initial residual = 0.0276404, Final residual = 0.00126689, No Iterations 4
ExecutionTime = 411.12 s  ClockTime = 9 s

Time = 4

smoothSolver:  Solving for Ux, Initial residual = 0.186378, Final residual = 0.000178811, No Iterations 10
smoothSolver:  Solving for Uy, Initial residual = 0.136883, Final residual = 0.000131691, No Iterations 10
[OGL LOG] init_host_sparsity_pattern : 32 ms
[OGL LOG] matrix not stored update host matrix
[OGL LOG] update_host_mtx : 15 ms
[OGL LOG] matrix is not yet sorted, sorting host matrix
[OGL LOG] sort_host_mtx_sparsity_pattern : 21 ms
[OGL LOG] sort_host_mtx : 12 ms
[OGL LOG] init_preconditioner : 0 ms
[OGL LOG] solve : 1956 ms
noneompGKOCG:  Solving for p, Initial residual = 0.186723, Final residual = 0.210946, No Iterations 1000
time step continuity errors : sum local = 0.0297442, global = 0.000596426, cumulative = -0.000812274
smoothSolver:  Solving for nuTilda, Initial residual = 0.0216422, Final residual = 0.00109968, No Iterations 4
ExecutionTime = 536.79 s  ClockTime = 11 s

Time = 5

smoothSolver:  Solving for Ux, Initial residual = 0.24405, Final residual = 0.000227185, No Iterations 10
smoothSolver:  Solving for Uy, Initial residual = 0.221662, Final residual = 0.0002147, No Iterations 10
[OGL LOG] init_host_sparsity_pattern : 32 ms
[OGL LOG] matrix not stored update host matrix
[OGL LOG] update_host_mtx : 15 ms
[OGL LOG] matrix is not yet sorted, sorting host matrix
[OGL LOG] sort_host_mtx_sparsity_pattern : 21 ms
[OGL LOG] sort_host_mtx : 12 ms
[OGL LOG] init_preconditioner : 0 ms
[OGL LOG] solve : 1958 ms
noneompGKOCG:  Solving for p, Initial residual = 0.157034, Final residual = 0.119832, No Iterations 1000
time step continuity errors : sum local = 0.0293665, global = 0.000926553, cumulative = 0.000114279
smoothSolver:  Solving for nuTilda, Initial residual = 0.0175427, Final residual = 0.000949154, No Iterations 4
ExecutionTime = 662.56 s  ClockTime = 14 s

End

