/*---------------------------------------------------------------------------*\
  =========                 |
  \\      /  F ield         | OpenFOAM: The Open Source CFD Toolbox
   \\    /   O peration     | Website:  https://openfoam.org
    \\  /    A nd           | Version:  8
     \\/     M anipulation  |
\*---------------------------------------------------------------------------*/
Build  : 8-13d66902f78c
Exec   : simpleFoam
Date   : Jul 04 2021
Time   : 12:16:40
Host   : "uc2n420.localdomain"
PID    : 1149672
I/O    : uncollated
Case   : /pfs/data5/home/kit/scc/nq7776/code/OGL_DATA/airFoil2D/v0.1-136-g40fef35/f584ccac99/IntelXeonGold6230CPU@2.10GHz/Test_2021-07-04-10:19:03/3/p-U-BiCGStab-GKO-none-omp/airFoil2D
nProcs : 1
sigFpe : Enabling floating point exception trapping (FOAM_SIGFPE).
fileModificationChecking : Monitoring run-time modified files using timeStampMaster (fileModificationSkew 10)
allowSystemOperations : Allowing user-supplied system call operations

// * * * * * * * * * * * * * * * * * * * * * * * * * * * * * * * * * * * * * //
Create time

Create mesh for time = 0


SIMPLE: Convergence criteria found
        p: tolerance 1e-05
        U: tolerance 1e-05
        nuTilda: tolerance 1e-05

Reading field p

Reading field U

Reading/calculating face flux field phi

Selecting incompressible transport model Newtonian
Selecting turbulence model type RAS
Selecting RAS turbulence model SpalartAllmaras
Selecting patchDistMethod meshWave
RAS
{
    model           SpalartAllmaras;
    turbulence      on;
    printCoeffs     on;
    sigmaNut        0.66666;
    kappa           0.41;
    Cb1             0.1355;
    Cb2             0.622;
    Cw2             0.3;
    Cw3             2;
    Cv1             7.1;
    Cs              0.3;
}

No MRF models present

No finite volume options present

Starting time loop

Time = 1

[OGL LOG] init_host_sparsity_pattern : 134 ms
[OGL LOG] matrix not stored update host matrix
[OGL LOG] update_host_mtx : 73 ms
[OGL LOG] matrix is not yet sorted, compute sorting idxs
[OGL LOG] compute_sort : 4573 ms
[OGL LOG] matrix is not yet sorted, sorting host matrix
[OGL LOG] sort_host_mtx_sparsity_pattern : 97 ms
[OGL LOG] sort_host_mtx : 53 ms
[OGL LOG] init_preconditioner : 0 ms
[OGL LOG] solve : 941 ms
noneompGKOBiCGStab:  Solving for Ux, Initial residual = 127.993, Final residual = 0.124709, No Iterations 52
[OGL LOG] init_host_sparsity_pattern : 129 ms
[OGL LOG] matrix not stored update host matrix
[OGL LOG] update_host_mtx : 63 ms
[OGL LOG] matrix is not yet sorted, sorting host matrix
[OGL LOG] sort_host_mtx_sparsity_pattern : 94 ms
[OGL LOG] sort_host_mtx : 58 ms
[OGL LOG] init_preconditioner : 0 ms
[OGL LOG] solve : 1117 ms
noneompGKOBiCGStab:  Solving for Uy, Initial residual = 135.712, Final residual = 0.132675, No Iterations 52
[OGL LOG] init_host_sparsity_pattern : 130 ms
[OGL LOG] matrix not stored update host matrix
[OGL LOG] update_host_mtx : 67 ms
[OGL LOG] matrix is not yet sorted, sorting host matrix
[OGL LOG] sort_host_mtx_sparsity_pattern : 98 ms
[OGL LOG] sort_host_mtx : 53 ms
[OGL LOG] init_preconditioner : 0 ms
[OGL LOG] solve : 15686 ms
noneompGKOBiCGStab:  Solving for p, Initial residual = 1, Final residual = 0.039107, No Iterations 1000
time step continuity errors : sum local = 0.00232314, global = -2.96273e-05, cumulative = -2.96273e-05
smoothSolver:  Solving for nuTilda, Initial residual = 1, Final residual = 0.0366565, No Iterations 2
ExecutionTime = 577.08 s  ClockTime = 29 s

Time = 2

[OGL LOG] init_host_sparsity_pattern : 129 ms
[OGL LOG] matrix not stored update host matrix
[OGL LOG] update_host_mtx : 73 ms
[OGL LOG] matrix is not yet sorted, sorting host matrix
[OGL LOG] sort_host_mtx_sparsity_pattern : 104 ms
[OGL LOG] sort_host_mtx : 53 ms
[OGL LOG] init_preconditioner : 0 ms
[OGL LOG] solve : 1923 ms
noneompGKOBiCGStab:  Solving for Ux, Initial residual = 0.476143, Final residual = 0.000457456, No Iterations 112
[OGL LOG] init_host_sparsity_pattern : 130 ms
[OGL LOG] matrix not stored update host matrix
[OGL LOG] update_host_mtx : 70 ms
[OGL LOG] matrix is not yet sorted, sorting host matrix
[OGL LOG] sort_host_mtx_sparsity_pattern : 100 ms
[OGL LOG] sort_host_mtx : 53 ms
[OGL LOG] init_preconditioner : 0 ms
[OGL LOG] solve : 1749 ms
noneompGKOBiCGStab:  Solving for Uy, Initial residual = 0.551054, Final residual = 0.000543874, No Iterations 103
[OGL LOG] init_host_sparsity_pattern : 130 ms
[OGL LOG] matrix not stored update host matrix
[OGL LOG] update_host_mtx : 66 ms
[OGL LOG] matrix is not yet sorted, sorting host matrix
[OGL LOG] sort_host_mtx_sparsity_pattern : 106 ms
[OGL LOG] sort_host_mtx : 63 ms
[OGL LOG] init_preconditioner : 0 ms
[OGL LOG] solve : 16392 ms
noneompGKOBiCGStab:  Solving for p, Initial residual = 0.430184, Final residual = 0.0263199, No Iterations 1000
time step continuity errors : sum local = 0.00236269, global = -0.000202756, cumulative = -0.000232384
smoothSolver:  Solving for nuTilda, Initial residual = 0.116242, Final residual = 0.00322686, No Iterations 4
ExecutionTime = 1219.72 s  ClockTime = 51 s

Time = 3

[OGL LOG] init_host_sparsity_pattern : 129 ms
[OGL LOG] matrix not stored update host matrix
[OGL LOG] update_host_mtx : 72 ms
[OGL LOG] matrix is not yet sorted, sorting host matrix
[OGL LOG] sort_host_mtx_sparsity_pattern : 98 ms
[OGL LOG] sort_host_mtx : 58 ms
[OGL LOG] init_preconditioner : 0 ms
[OGL LOG] solve : 2125 ms
noneompGKOBiCGStab:  Solving for Ux, Initial residual = 0.270408, Final residual = 0.000180799, No Iterations 124
[OGL LOG] init_host_sparsity_pattern : 136 ms
[OGL LOG] matrix not stored update host matrix
[OGL LOG] update_host_mtx : 63 ms
[OGL LOG] matrix is not yet sorted, sorting host matrix
[OGL LOG] sort_host_mtx_sparsity_pattern : 95 ms
[OGL LOG] sort_host_mtx : 58 ms
[OGL LOG] init_preconditioner : 0 ms
[OGL LOG] solve : 1775 ms
noneompGKOBiCGStab:  Solving for Uy, Initial residual = 0.160169, Final residual = 0.000152128, No Iterations 105
[OGL LOG] init_host_sparsity_pattern : 129 ms
[OGL LOG] matrix not stored update host matrix
[OGL LOG] update_host_mtx : 65 ms
[OGL LOG] matrix is not yet sorted, sorting host matrix
[OGL LOG] sort_host_mtx_sparsity_pattern : 89 ms
[OGL LOG] sort_host_mtx : 53 ms
[OGL LOG] init_preconditioner : 0 ms
[OGL LOG] solve : 16283 ms
noneompGKOBiCGStab:  Solving for p, Initial residual = 0.257461, Final residual = 0.020647, No Iterations 1000
time step continuity errors : sum local = 0.00217669, global = -0.000271779, cumulative = -0.000504162
smoothSolver:  Solving for nuTilda, Initial residual = 0.057429, Final residual = 0.00326569, No Iterations 4
ExecutionTime = 1866.71 s  ClockTime = 74 s

Time = 4

[OGL LOG] init_host_sparsity_pattern : 131 ms
[OGL LOG] matrix not stored update host matrix
[OGL LOG] update_host_mtx : 72 ms
[OGL LOG] matrix is not yet sorted, sorting host matrix
[OGL LOG] sort_host_mtx_sparsity_pattern : 102 ms
[OGL LOG] sort_host_mtx : 53 ms
[OGL LOG] init_preconditioner : 0 ms
[OGL LOG] solve : 1693 ms
noneompGKOBiCGStab:  Solving for Ux, Initial residual = 0.213397, Final residual = 0.00020039, No Iterations 99
[OGL LOG] init_host_sparsity_pattern : 129 ms
[OGL LOG] matrix not stored update host matrix
[OGL LOG] update_host_mtx : 63 ms
[OGL LOG] matrix is not yet sorted, sorting host matrix
[OGL LOG] sort_host_mtx_sparsity_pattern : 99 ms
[OGL LOG] sort_host_mtx : 53 ms
[OGL LOG] init_preconditioner : 0 ms
[OGL LOG] solve : 1678 ms
noneompGKOBiCGStab:  Solving for Uy, Initial residual = 0.137564, Final residual = 0.000130897, No Iterations 99
[OGL LOG] init_host_sparsity_pattern : 129 ms
[OGL LOG] matrix not stored update host matrix
[OGL LOG] update_host_mtx : 64 ms
[OGL LOG] matrix is not yet sorted, sorting host matrix
[OGL LOG] sort_host_mtx_sparsity_pattern : 90 ms
[OGL LOG] sort_host_mtx : 54 ms
[OGL LOG] init_preconditioner : 0 ms
[OGL LOG] solve : 17417 ms
noneompGKOBiCGStab:  Solving for p, Initial residual = 0.274746, Final residual = 0.0236249, No Iterations 1000
time step continuity errors : sum local = 0.00256389, global = -0.000533394, cumulative = -0.00103756
smoothSolver:  Solving for nuTilda, Initial residual = 0.0504814, Final residual = 0.00315969, No Iterations 4
ExecutionTime = 2533.19 s  ClockTime = 97 s

Time = 5

[OGL LOG] init_host_sparsity_pattern : 129 ms
[OGL LOG] matrix not stored update host matrix
[OGL LOG] update_host_mtx : 72 ms
[OGL LOG] matrix is not yet sorted, sorting host matrix
[OGL LOG] sort_host_mtx_sparsity_pattern : 102 ms
[OGL LOG] sort_host_mtx : 53 ms
[OGL LOG] init_preconditioner : 0 ms
[OGL LOG] solve : 2109 ms
noneompGKOBiCGStab:  Solving for Ux, Initial residual = 0.185784, Final residual = 0.000165177, No Iterations 111
[OGL LOG] init_host_sparsity_pattern : 129 ms
[OGL LOG] matrix not stored update host matrix
[OGL LOG] update_host_mtx : 63 ms
[OGL LOG] matrix is not yet sorted, sorting host matrix
[OGL LOG] sort_host_mtx_sparsity_pattern : 99 ms
[OGL LOG] sort_host_mtx : 53 ms
[OGL LOG] init_preconditioner : 0 ms
[OGL LOG] solve : 1731 ms
noneompGKOBiCGStab:  Solving for Uy, Initial residual = 0.142247, Final residual = 0.000133243, No Iterations 93
[OGL LOG] init_host_sparsity_pattern : 129 ms
[OGL LOG] matrix not stored update host matrix
[OGL LOG] update_host_mtx : 63 ms
[OGL LOG] matrix is not yet sorted, sorting host matrix
[OGL LOG] sort_host_mtx_sparsity_pattern : 90 ms
[OGL LOG] sort_host_mtx : 54 ms
[OGL LOG] init_preconditioner : 0 ms
[OGL LOG] solve : 17601 ms
noneompGKOBiCGStab:  Solving for p, Initial residual = 0.246327, Final residual = 0.0219665, No Iterations 1000
time step continuity errors : sum local = 0.00278115, global = -0.00110428, cumulative = -0.00214184
smoothSolver:  Solving for nuTilda, Initial residual = 0.0487905, Final residual = 0.00314844, No Iterations 4
ExecutionTime = 3220.44 s  ClockTime = 120 s

End

