/*---------------------------------------------------------------------------*\
  =========                 |
  \\      /  F ield         | OpenFOAM: The Open Source CFD Toolbox
   \\    /   O peration     | Website:  https://openfoam.org
    \\  /    A nd           | Version:  8
     \\/     M anipulation  |
\*---------------------------------------------------------------------------*/
Build  : 8-13d66902f78c
Exec   : simpleFoam
Date   : Jul 04 2021
Time   : 11:50:16
Host   : "uc2n449.localdomain"
PID    : 2088958
I/O    : uncollated
Case   : /pfs/data5/home/kit/scc/nq7776/code/OGL_DATA/airFoil2D/v0.1-136-g40fef35/f584ccac99/IntelXeonGold6230CPU@2.10GHz/Test_2021-07-04-10:23:01/3/p-U-CG-GKO-BJ-omp/airFoil2D
nProcs : 1
sigFpe : Enabling floating point exception trapping (FOAM_SIGFPE).
fileModificationChecking : Monitoring run-time modified files using timeStampMaster (fileModificationSkew 10)
allowSystemOperations : Allowing user-supplied system call operations

// * * * * * * * * * * * * * * * * * * * * * * * * * * * * * * * * * * * * * //
Create time

Create mesh for time = 0


SIMPLE: Convergence criteria found
        p: tolerance 1e-05
        U: tolerance 1e-05
        nuTilda: tolerance 1e-05

Reading field p

Reading field U

Reading/calculating face flux field phi

Selecting incompressible transport model Newtonian
Selecting turbulence model type RAS
Selecting RAS turbulence model SpalartAllmaras
Selecting patchDistMethod meshWave
RAS
{
    model           SpalartAllmaras;
    turbulence      on;
    printCoeffs     on;
    sigmaNut        0.66666;
    kappa           0.41;
    Cb1             0.1355;
    Cb2             0.622;
    Cw2             0.3;
    Cw3             2;
    Cv1             7.1;
    Cs              0.3;
}

No MRF models present

No finite volume options present

Starting time loop

Time = 1

[OGL LOG] init_host_sparsity_pattern : 134 ms
[OGL LOG] matrix not stored update host matrix
[OGL LOG] update_host_mtx : 72 ms
[OGL LOG] matrix is not yet sorted, compute sorting idxs
[OGL LOG] compute_sort : 4582 ms
[OGL LOG] matrix is not yet sorted, sorting host matrix
[OGL LOG] sort_host_mtx_sparsity_pattern : 96 ms
[OGL LOG] sort_host_mtx : 53 ms
[OGL LOG] init_preconditioner : 54 ms
[OGL LOG] solve : 424 ms
BJompGKOBiCGStab:  Solving for Ux, Initial residual = 127.993, Final residual = 0.122268, No Iterations 10
[OGL LOG] init_host_sparsity_pattern : 129 ms
[OGL LOG] matrix not stored update host matrix
[OGL LOG] update_host_mtx : 64 ms
[OGL LOG] matrix is not yet sorted, sorting host matrix
[OGL LOG] sort_host_mtx_sparsity_pattern : 100 ms
[OGL LOG] sort_host_mtx : 53 ms
[OGL LOG] init_preconditioner : 55 ms
[OGL LOG] solve : 441 ms
BJompGKOBiCGStab:  Solving for Uy, Initial residual = 135.712, Final residual = 0.126938, No Iterations 10
[OGL LOG] init_host_sparsity_pattern : 129 ms
[OGL LOG] matrix not stored update host matrix
[OGL LOG] update_host_mtx : 64 ms
[OGL LOG] matrix is not yet sorted, sorting host matrix
[OGL LOG] sort_host_mtx_sparsity_pattern : 94 ms
[OGL LOG] sort_host_mtx : 54 ms
[OGL LOG] init_preconditioner : 57 ms
 CG create  precond 
[OGL LOG] solve : 20516 ms
BJompGKOCG:  Solving for p, Initial residual = 1, Final residual = 0.092726, No Iterations 1000
time step continuity errors : sum local = 0.00550776, global = 3.42591e-05, cumulative = 3.42591e-05
smoothSolver:  Solving for nuTilda, Initial residual = 1, Final residual = 0.0372021, No Iterations 2
ExecutionTime = 97.08 s  ClockTime = 33 s

Time = 2

[OGL LOG] init_host_sparsity_pattern : 129 ms
[OGL LOG] matrix not stored update host matrix
[OGL LOG] update_host_mtx : 72 ms
[OGL LOG] matrix is not yet sorted, sorting host matrix
[OGL LOG] sort_host_mtx_sparsity_pattern : 105 ms
[OGL LOG] sort_host_mtx : 58 ms
[OGL LOG] init_preconditioner : 0 ms
[OGL LOG] solve : 500 ms
BJompGKOBiCGStab:  Solving for Ux, Initial residual = 0.663784, Final residual = 0.000658888, No Iterations 10
[OGL LOG] init_host_sparsity_pattern : 129 ms
[OGL LOG] matrix not stored update host matrix
[OGL LOG] update_host_mtx : 62 ms
[OGL LOG] matrix is not yet sorted, sorting host matrix
[OGL LOG] sort_host_mtx_sparsity_pattern : 94 ms
[OGL LOG] sort_host_mtx : 58 ms
[OGL LOG] init_preconditioner : 0 ms
[OGL LOG] solve : 535 ms
BJompGKOBiCGStab:  Solving for Uy, Initial residual = 0.725733, Final residual = 0.000704391, No Iterations 11
[OGL LOG] init_host_sparsity_pattern : 129 ms
[OGL LOG] matrix not stored update host matrix
[OGL LOG] update_host_mtx : 70 ms
[OGL LOG] matrix is not yet sorted, sorting host matrix
[OGL LOG] sort_host_mtx_sparsity_pattern : 97 ms
[OGL LOG] sort_host_mtx : 57 ms
[OGL LOG] init_preconditioner : 0 ms
 CG create  precond 
[OGL LOG] solve : 20299 ms
BJompGKOCG:  Solving for p, Initial residual = 0.096477, Final residual = 0.0307179, No Iterations 1000
time step continuity errors : sum local = 0.0148198, global = 3.17224e-06, cumulative = 3.74313e-05
smoothSolver:  Solving for nuTilda, Initial residual = 0.123103, Final residual = 0.00366534, No Iterations 4
ExecutionTime = 184.37 s  ClockTime = 57 s

Time = 3

[OGL LOG] init_host_sparsity_pattern : 129 ms
[OGL LOG] matrix not stored update host matrix
[OGL LOG] update_host_mtx : 71 ms
[OGL LOG] matrix is not yet sorted, sorting host matrix
[OGL LOG] sort_host_mtx_sparsity_pattern : 97 ms
[OGL LOG] sort_host_mtx : 58 ms
[OGL LOG] init_preconditioner : 0 ms
[OGL LOG] solve : 472 ms
BJompGKOBiCGStab:  Solving for Ux, Initial residual = 0.229928, Final residual = 0.000198149, No Iterations 11
[OGL LOG] init_host_sparsity_pattern : 129 ms
[OGL LOG] matrix not stored update host matrix
[OGL LOG] update_host_mtx : 62 ms
[OGL LOG] matrix is not yet sorted, sorting host matrix
[OGL LOG] sort_host_mtx_sparsity_pattern : 94 ms
[OGL LOG] sort_host_mtx : 58 ms
[OGL LOG] init_preconditioner : 0 ms
[OGL LOG] solve : 404 ms
BJompGKOBiCGStab:  Solving for Uy, Initial residual = 0.193047, Final residual = 0.000182876, No Iterations 9
[OGL LOG] init_host_sparsity_pattern : 129 ms
[OGL LOG] matrix not stored update host matrix
[OGL LOG] update_host_mtx : 63 ms
[OGL LOG] matrix is not yet sorted, sorting host matrix
[OGL LOG] sort_host_mtx_sparsity_pattern : 89 ms
[OGL LOG] sort_host_mtx : 54 ms
[OGL LOG] init_preconditioner : 0 ms
 CG create  precond 
[OGL LOG] solve : 19981 ms
BJompGKOCG:  Solving for p, Initial residual = 0.113597, Final residual = 0.0482055, No Iterations 1000
time step continuity errors : sum local = 0.0184369, global = -0.000106766, cumulative = -6.93351e-05
smoothSolver:  Solving for nuTilda, Initial residual = 0.0669594, Final residual = 0.00391249, No Iterations 4
ExecutionTime = 269.77 s  ClockTime = 80 s

Time = 4

[OGL LOG] init_host_sparsity_pattern : 129 ms
[OGL LOG] matrix not stored update host matrix
[OGL LOG] update_host_mtx : 72 ms
[OGL LOG] matrix is not yet sorted, sorting host matrix
[OGL LOG] sort_host_mtx_sparsity_pattern : 97 ms
[OGL LOG] sort_host_mtx : 58 ms
[OGL LOG] init_preconditioner : 0 ms
[OGL LOG] solve : 546 ms
BJompGKOBiCGStab:  Solving for Ux, Initial residual = 0.169252, Final residual = 0.000107725, No Iterations 12
[OGL LOG] init_host_sparsity_pattern : 130 ms
[OGL LOG] matrix not stored update host matrix
[OGL LOG] update_host_mtx : 62 ms
[OGL LOG] matrix is not yet sorted, sorting host matrix
[OGL LOG] sort_host_mtx_sparsity_pattern : 95 ms
[OGL LOG] sort_host_mtx : 58 ms
[OGL LOG] init_preconditioner : 0 ms
[OGL LOG] solve : 506 ms
BJompGKOBiCGStab:  Solving for Uy, Initial residual = 0.136686, Final residual = 0.000124734, No Iterations 12
[OGL LOG] init_host_sparsity_pattern : 129 ms
[OGL LOG] matrix not stored update host matrix
[OGL LOG] update_host_mtx : 64 ms
[OGL LOG] matrix is not yet sorted, sorting host matrix
[OGL LOG] sort_host_mtx_sparsity_pattern : 90 ms
[OGL LOG] sort_host_mtx : 54 ms
[OGL LOG] init_preconditioner : 0 ms
 CG create  precond 
[OGL LOG] solve : 19713 ms
BJompGKOCG:  Solving for p, Initial residual = 0.252411, Final residual = 0.0454233, No Iterations 1000
time step continuity errors : sum local = 0.00959026, global = -0.000157167, cumulative = -0.000226502
smoothSolver:  Solving for nuTilda, Initial residual = 0.0588815, Final residual = 0.00365856, No Iterations 4
ExecutionTime = 354.78 s  ClockTime = 102 s

Time = 5

[OGL LOG] init_host_sparsity_pattern : 129 ms
[OGL LOG] matrix not stored update host matrix
[OGL LOG] update_host_mtx : 72 ms
[OGL LOG] matrix is not yet sorted, sorting host matrix
[OGL LOG] sort_host_mtx_sparsity_pattern : 97 ms
[OGL LOG] sort_host_mtx : 58 ms
[OGL LOG] init_preconditioner : 0 ms
[OGL LOG] solve : 448 ms
BJompGKOBiCGStab:  Solving for Ux, Initial residual = 0.273957, Final residual = 0.000253834, No Iterations 10
[OGL LOG] init_host_sparsity_pattern : 129 ms
[OGL LOG] matrix not stored update host matrix
[OGL LOG] update_host_mtx : 62 ms
[OGL LOG] matrix is not yet sorted, sorting host matrix
[OGL LOG] sort_host_mtx_sparsity_pattern : 94 ms
[OGL LOG] sort_host_mtx : 58 ms
[OGL LOG] init_preconditioner : 0 ms
[OGL LOG] solve : 523 ms
BJompGKOBiCGStab:  Solving for Uy, Initial residual = 0.27012, Final residual = 0.000196688, No Iterations 12
[OGL LOG] init_host_sparsity_pattern : 129 ms
[OGL LOG] matrix not stored update host matrix
[OGL LOG] update_host_mtx : 64 ms
[OGL LOG] matrix is not yet sorted, sorting host matrix
[OGL LOG] sort_host_mtx_sparsity_pattern : 91 ms
[OGL LOG] sort_host_mtx : 53 ms
[OGL LOG] init_preconditioner : 0 ms
 CG create  precond 
[OGL LOG] solve : 20239 ms
BJompGKOCG:  Solving for p, Initial residual = 0.122865, Final residual = 0.0455862, No Iterations 1000
time step continuity errors : sum local = 0.0159964, global = 3.78196e-05, cumulative = -0.000188683
smoothSolver:  Solving for nuTilda, Initial residual = 0.0539929, Final residual = 0.00336655, No Iterations 4
ExecutionTime = 441.59 s  ClockTime = 126 s

End

