/*---------------------------------------------------------------------------*\
  =========                 |
  \\      /  F ield         | OpenFOAM: The Open Source CFD Toolbox
   \\    /   O peration     | Website:  https://openfoam.org
    \\  /    A nd           | Version:  8
     \\/     M anipulation  |
\*---------------------------------------------------------------------------*/
Build  : 8-13d66902f78c
Exec   : simpleFoam
Date   : Jul 04 2021
Time   : 10:09:03
Host   : "uc2n385.localdomain"
PID    : 3310258
I/O    : uncollated
Case   : /pfs/data5/home/kit/scc/nq7776/code/OGL_DATA/airFoil2D/v0.1-136-g40fef35/f584ccac99/IntelXeonGold6230CPU@2.10GHz/Test_2021-07-04-09:30:48/3/p-BiCGStab-GKO-none-omp/airFoil2D
nProcs : 1
sigFpe : Enabling floating point exception trapping (FOAM_SIGFPE).
fileModificationChecking : Monitoring run-time modified files using timeStampMaster (fileModificationSkew 10)
allowSystemOperations : Allowing user-supplied system call operations

// * * * * * * * * * * * * * * * * * * * * * * * * * * * * * * * * * * * * * //
Create time

Create mesh for time = 0


SIMPLE: Convergence criteria found
        p: tolerance 1e-05
        U: tolerance 1e-05
        nuTilda: tolerance 1e-05

Reading field p

Reading field U

Reading/calculating face flux field phi

Selecting incompressible transport model Newtonian
Selecting turbulence model type RAS
Selecting RAS turbulence model SpalartAllmaras
Selecting patchDistMethod meshWave
RAS
{
    model           SpalartAllmaras;
    turbulence      on;
    printCoeffs     on;
    sigmaNut        0.66666;
    kappa           0.41;
    Cb1             0.1355;
    Cb2             0.622;
    Cw2             0.3;
    Cw3             2;
    Cv1             7.1;
    Cs              0.3;
}

No MRF models present

No finite volume options present

Starting time loop

Time = 1

smoothSolver:  Solving for Ux, Initial residual = 1, Final residual = 0.000579349, No Iterations 12
smoothSolver:  Solving for Uy, Initial residual = 0.999999, Final residual = 0.000271884, No Iterations 12
[OGL LOG] init_host_sparsity_pattern : 129 ms
[OGL LOG] matrix not stored update host matrix
[OGL LOG] update_host_mtx : 70 ms
[OGL LOG] matrix is not yet sorted, compute sorting idxs
[OGL LOG] compute_sort : 4553 ms
[OGL LOG] matrix is not yet sorted, sorting host matrix
[OGL LOG] sort_host_mtx_sparsity_pattern : 98 ms
[OGL LOG] sort_host_mtx : 53 ms
[OGL LOG] init_preconditioner : 0 ms
[OGL LOG] solve : 40700 ms
noneompGKOBiCGStab:  Solving for p, Initial residual = 1, Final residual = 1.00893, No Iterations 1000
time step continuity errors : sum local = 0.00195754, global = 1.16418e-09, cumulative = 1.16418e-09
smoothSolver:  Solving for nuTilda, Initial residual = 1, Final residual = 0.0306216, No Iterations 2
ExecutionTime = 50.83 s  ClockTime = 51 s

Time = 2

smoothSolver:  Solving for Ux, Initial residual = 0.238059, Final residual = 0.000228577, No Iterations 10
smoothSolver:  Solving for Uy, Initial residual = 0.339061, Final residual = 8.59661e-05, No Iterations 12
[OGL LOG] init_host_sparsity_pattern : 130 ms
[OGL LOG] matrix not stored update host matrix
[OGL LOG] update_host_mtx : 63 ms
[OGL LOG] matrix is not yet sorted, sorting host matrix
[OGL LOG] sort_host_mtx_sparsity_pattern : 94 ms
[OGL LOG] sort_host_mtx : 54 ms
[OGL LOG] init_preconditioner : 0 ms
[OGL LOG] solve : 40664 ms
noneompGKOBiCGStab:  Solving for p, Initial residual = 1.82422, Final residual = 0.266808, No Iterations 1000
time step continuity errors : sum local = 0.00173814, global = 1.62502e-11, cumulative = 1.18043e-09
smoothSolver:  Solving for nuTilda, Initial residual = 0.0935965, Final residual = 0.00898415, No Iterations 2
ExecutionTime = 92.83 s  ClockTime = 93 s

Time = 3

smoothSolver:  Solving for Ux, Initial residual = 0.126537, Final residual = 0.000125834, No Iterations 10
smoothSolver:  Solving for Uy, Initial residual = 0.0984629, Final residual = 2.42512e-05, No Iterations 12
[OGL LOG] init_host_sparsity_pattern : 130 ms
[OGL LOG] matrix not stored update host matrix
[OGL LOG] update_host_mtx : 63 ms
[OGL LOG] matrix is not yet sorted, sorting host matrix
[OGL LOG] sort_host_mtx_sparsity_pattern : 95 ms
[OGL LOG] sort_host_mtx : 53 ms
[OGL LOG] init_preconditioner : 0 ms
[OGL LOG] solve : 40674 ms
noneompGKOBiCGStab:  Solving for p, Initial residual = 0.602973, Final residual = 0.216406, No Iterations 1000
time step continuity errors : sum local = 0.00194485, global = -9.95341e-06, cumulative = -9.95223e-06
smoothSolver:  Solving for nuTilda, Initial residual = 0.0305417, Final residual = 0.00125481, No Iterations 4
ExecutionTime = 134.89 s  ClockTime = 135 s

Time = 4

smoothSolver:  Solving for Ux, Initial residual = 0.149851, Final residual = 0.000149717, No Iterations 10
smoothSolver:  Solving for Uy, Initial residual = 0.0969202, Final residual = 2.36829e-05, No Iterations 12
[OGL LOG] init_host_sparsity_pattern : 129 ms
[OGL LOG] matrix not stored update host matrix
[OGL LOG] update_host_mtx : 64 ms
[OGL LOG] matrix is not yet sorted, sorting host matrix
[OGL LOG] sort_host_mtx_sparsity_pattern : 95 ms
[OGL LOG] sort_host_mtx : 53 ms
[OGL LOG] init_preconditioner : 0 ms
[OGL LOG] solve : 40217 ms
noneompGKOBiCGStab:  Solving for p, Initial residual = 1.02144, Final residual = 0.288252, No Iterations 1000
time step continuity errors : sum local = 0.00232936, global = -0.000246668, cumulative = -0.00025662
smoothSolver:  Solving for nuTilda, Initial residual = 0.0196665, Final residual = 0.00101029, No Iterations 4
ExecutionTime = 176.71 s  ClockTime = 177 s

Time = 5

smoothSolver:  Solving for Ux, Initial residual = 0.165193, Final residual = 4.04485e-05, No Iterations 12
smoothSolver:  Solving for Uy, Initial residual = 0.121848, Final residual = 3.04808e-05, No Iterations 12
[OGL LOG] init_host_sparsity_pattern : 139 ms
[OGL LOG] matrix not stored update host matrix
[OGL LOG] update_host_mtx : 75 ms
[OGL LOG] matrix is not yet sorted, sorting host matrix
[OGL LOG] sort_host_mtx_sparsity_pattern : 106 ms
[OGL LOG] sort_host_mtx : 53 ms
[OGL LOG] init_preconditioner : 0 ms
[OGL LOG] solve : 40473 ms
noneompGKOBiCGStab:  Solving for p, Initial residual = 0.820206, Final residual = 0.20562, No Iterations 1000
time step continuity errors : sum local = 0.00255662, global = -0.000861881, cumulative = -0.0011185
smoothSolver:  Solving for nuTilda, Initial residual = 0.0160133, Final residual = 0.000913523, No Iterations 4
ExecutionTime = 218.68 s  ClockTime = 219 s

End

