/*---------------------------------------------------------------------------*\
  =========                 |
  \\      /  F ield         | OpenFOAM: The Open Source CFD Toolbox
   \\    /   O peration     | Website:  https://openfoam.org
    \\  /    A nd           | Version:  8
     \\/     M anipulation  |
\*---------------------------------------------------------------------------*/
Build  : 8-13d66902f78c
Exec   : simpleFoam
Date   : Jul 04 2021
Time   : 10:58:06
Host   : "uc2n380.localdomain"
PID    : 4008291
I/O    : uncollated
Case   : /pfs/data5/home/kit/scc/nq7776/code/OGL_DATA/airFoil2D/v0.1-136-g40fef35/f584ccac99/IntelXeonGold6230CPU@2.10GHz/Test_2021-07-04-09:49:49/3/p-U-CG-GKO-none-omp/airFoil2D
nProcs : 1
sigFpe : Enabling floating point exception trapping (FOAM_SIGFPE).
fileModificationChecking : Monitoring run-time modified files using timeStampMaster (fileModificationSkew 10)
allowSystemOperations : Allowing user-supplied system call operations

// * * * * * * * * * * * * * * * * * * * * * * * * * * * * * * * * * * * * * //
Create time

Create mesh for time = 0


SIMPLE: Convergence criteria found
        p: tolerance 1e-05
        U: tolerance 1e-05
        nuTilda: tolerance 1e-05

Reading field p

Reading field U

Reading/calculating face flux field phi

Selecting incompressible transport model Newtonian
Selecting turbulence model type RAS
Selecting RAS turbulence model SpalartAllmaras
Selecting patchDistMethod meshWave
RAS
{
    model           SpalartAllmaras;
    turbulence      on;
    printCoeffs     on;
    sigmaNut        0.66666;
    kappa           0.41;
    Cb1             0.1355;
    Cb2             0.622;
    Cw2             0.3;
    Cw3             2;
    Cv1             7.1;
    Cs              0.3;
}

No MRF models present

No finite volume options present

Starting time loop

Time = 1

[OGL LOG] init_host_sparsity_pattern : 134 ms
[OGL LOG] matrix not stored update host matrix
[OGL LOG] update_host_mtx : 72 ms
[OGL LOG] matrix is not yet sorted, compute sorting idxs
[OGL LOG] compute_sort : 4545 ms
[OGL LOG] matrix is not yet sorted, sorting host matrix
[OGL LOG] sort_host_mtx_sparsity_pattern : 96 ms
[OGL LOG] sort_host_mtx : 53 ms
[OGL LOG] init_preconditioner : 0 ms
[OGL LOG] solve : 973 ms
noneompGKOBiCGStab:  Solving for Ux, Initial residual = 127.993, Final residual = 0.124709, No Iterations 52
[OGL LOG] init_host_sparsity_pattern : 129 ms
[OGL LOG] matrix not stored update host matrix
[OGL LOG] update_host_mtx : 62 ms
[OGL LOG] matrix is not yet sorted, sorting host matrix
[OGL LOG] sort_host_mtx_sparsity_pattern : 94 ms
[OGL LOG] sort_host_mtx : 59 ms
[OGL LOG] init_preconditioner : 0 ms
[OGL LOG] solve : 1002 ms
noneompGKOBiCGStab:  Solving for Uy, Initial residual = 135.712, Final residual = 0.132675, No Iterations 52
[OGL LOG] init_host_sparsity_pattern : 131 ms
[OGL LOG] matrix not stored update host matrix
[OGL LOG] update_host_mtx : 67 ms
[OGL LOG] matrix is not yet sorted, sorting host matrix
[OGL LOG] sort_host_mtx_sparsity_pattern : 98 ms
[OGL LOG] sort_host_mtx : 53 ms
[OGL LOG] init_preconditioner : 0 ms
[OGL LOG] solve : 8610 ms
noneompGKOCG:  Solving for p, Initial residual = 1, Final residual = 1.02576, No Iterations 1000
time step continuity errors : sum local = 0.0609352, global = 3.34352e-06, cumulative = 3.34352e-06
smoothSolver:  Solving for nuTilda, Initial residual = 1, Final residual = 0.036723, No Iterations 2
ExecutionTime = 95.2 s  ClockTime = 22 s

Time = 2

[OGL LOG] init_host_sparsity_pattern : 129 ms
[OGL LOG] matrix not stored update host matrix
[OGL LOG] update_host_mtx : 66 ms
[OGL LOG] matrix is not yet sorted, sorting host matrix
[OGL LOG] sort_host_mtx_sparsity_pattern : 97 ms
[OGL LOG] sort_host_mtx : 58 ms
[OGL LOG] init_preconditioner : 0 ms
[OGL LOG] solve : 2079 ms
noneompGKOBiCGStab:  Solving for Ux, Initial residual = 0.578469, Final residual = 0.00057389, No Iterations 114
[OGL LOG] init_host_sparsity_pattern : 129 ms
[OGL LOG] matrix not stored update host matrix
[OGL LOG] update_host_mtx : 62 ms
[OGL LOG] matrix is not yet sorted, sorting host matrix
[OGL LOG] sort_host_mtx_sparsity_pattern : 94 ms
[OGL LOG] sort_host_mtx : 58 ms
[OGL LOG] init_preconditioner : 0 ms
[OGL LOG] solve : 1970 ms
noneompGKOBiCGStab:  Solving for Uy, Initial residual = 0.571875, Final residual = 0.000550404, No Iterations 108
[OGL LOG] init_host_sparsity_pattern : 129 ms
[OGL LOG] matrix not stored update host matrix
[OGL LOG] update_host_mtx : 63 ms
[OGL LOG] matrix is not yet sorted, sorting host matrix
[OGL LOG] sort_host_mtx_sparsity_pattern : 95 ms
[OGL LOG] sort_host_mtx : 53 ms
[OGL LOG] init_preconditioner : 0 ms
[OGL LOG] solve : 9052 ms
noneompGKOCG:  Solving for p, Initial residual = 0.885148, Final residual = 0.30167, No Iterations 1000
time step continuity errors : sum local = 0.0380759, global = -0.0012173, cumulative = -0.00121396
smoothSolver:  Solving for nuTilda, Initial residual = 0.128659, Final residual = 0.00422163, No Iterations 4
ExecutionTime = 202.05 s  ClockTime = 37 s

Time = 3

[OGL LOG] init_host_sparsity_pattern : 129 ms
[OGL LOG] matrix not stored update host matrix
[OGL LOG] update_host_mtx : 73 ms
[OGL LOG] matrix is not yet sorted, sorting host matrix
[OGL LOG] sort_host_mtx_sparsity_pattern : 97 ms
[OGL LOG] sort_host_mtx : 58 ms
[OGL LOG] init_preconditioner : 0 ms
[OGL LOG] solve : 1982 ms
noneompGKOBiCGStab:  Solving for Ux, Initial residual = 0.32988, Final residual = 0.000321295, No Iterations 108
[OGL LOG] init_host_sparsity_pattern : 129 ms
[OGL LOG] matrix not stored update host matrix
[OGL LOG] update_host_mtx : 64 ms
[OGL LOG] matrix is not yet sorted, sorting host matrix
[OGL LOG] sort_host_mtx_sparsity_pattern : 94 ms
[OGL LOG] sort_host_mtx : 58 ms
[OGL LOG] init_preconditioner : 0 ms
[OGL LOG] solve : 1898 ms
noneompGKOBiCGStab:  Solving for Uy, Initial residual = 0.167617, Final residual = 0.000164264, No Iterations 103
[OGL LOG] init_host_sparsity_pattern : 129 ms
[OGL LOG] matrix not stored update host matrix
[OGL LOG] update_host_mtx : 65 ms
[OGL LOG] matrix is not yet sorted, sorting host matrix
[OGL LOG] sort_host_mtx_sparsity_pattern : 94 ms
[OGL LOG] sort_host_mtx : 56 ms
[OGL LOG] init_preconditioner : 0 ms
[OGL LOG] solve : 9141 ms
noneompGKOCG:  Solving for p, Initial residual = 0.50539, Final residual = 0.283531, No Iterations 1000
time step continuity errors : sum local = 0.0391706, global = -0.000458616, cumulative = -0.00167257
smoothSolver:  Solving for nuTilda, Initial residual = 0.0695464, Final residual = 0.00409449, No Iterations 4
ExecutionTime = 308.16 s  ClockTime = 52 s

Time = 4

[OGL LOG] init_host_sparsity_pattern : 129 ms
[OGL LOG] matrix not stored update host matrix
[OGL LOG] update_host_mtx : 72 ms
[OGL LOG] matrix is not yet sorted, sorting host matrix
[OGL LOG] sort_host_mtx_sparsity_pattern : 94 ms
[OGL LOG] sort_host_mtx : 58 ms
[OGL LOG] init_preconditioner : 0 ms
[OGL LOG] solve : 1960 ms
noneompGKOBiCGStab:  Solving for Ux, Initial residual = 0.267549, Final residual = 0.000265086, No Iterations 108
[OGL LOG] init_host_sparsity_pattern : 136 ms
[OGL LOG] matrix not stored update host matrix
[OGL LOG] update_host_mtx : 71 ms
[OGL LOG] matrix is not yet sorted, sorting host matrix
[OGL LOG] sort_host_mtx_sparsity_pattern : 97 ms
[OGL LOG] sort_host_mtx : 58 ms
[OGL LOG] init_preconditioner : 0 ms
[OGL LOG] solve : 1754 ms
noneompGKOBiCGStab:  Solving for Uy, Initial residual = 0.164565, Final residual = 0.000147811, No Iterations 96
[OGL LOG] init_host_sparsity_pattern : 130 ms
[OGL LOG] matrix not stored update host matrix
[OGL LOG] update_host_mtx : 69 ms
[OGL LOG] matrix is not yet sorted, sorting host matrix
[OGL LOG] sort_host_mtx_sparsity_pattern : 93 ms
[OGL LOG] sort_host_mtx : 54 ms
[OGL LOG] init_preconditioner : 0 ms
[OGL LOG] solve : 8966 ms
noneompGKOCG:  Solving for p, Initial residual = 0.565751, Final residual = 0.264661, No Iterations 1000
time step continuity errors : sum local = 0.0371946, global = -0.000122315, cumulative = -0.00179489
smoothSolver:  Solving for nuTilda, Initial residual = 0.0595516, Final residual = 0.00377577, No Iterations 4
ExecutionTime = 411.17 s  ClockTime = 67 s

Time = 5

[OGL LOG] init_host_sparsity_pattern : 129 ms
[OGL LOG] matrix not stored update host matrix
[OGL LOG] update_host_mtx : 72 ms
[OGL LOG] matrix is not yet sorted, sorting host matrix
[OGL LOG] sort_host_mtx_sparsity_pattern : 97 ms
[OGL LOG] sort_host_mtx : 58 ms
[OGL LOG] init_preconditioner : 0 ms
[OGL LOG] solve : 1983 ms
noneompGKOBiCGStab:  Solving for Ux, Initial residual = 0.217655, Final residual = 0.000216926, No Iterations 115
[OGL LOG] init_host_sparsity_pattern : 129 ms
[OGL LOG] matrix not stored update host matrix
[OGL LOG] update_host_mtx : 63 ms
[OGL LOG] matrix is not yet sorted, sorting host matrix
[OGL LOG] sort_host_mtx_sparsity_pattern : 94 ms
[OGL LOG] sort_host_mtx : 58 ms
[OGL LOG] init_preconditioner : 0 ms
[OGL LOG] solve : 1841 ms
noneompGKOBiCGStab:  Solving for Uy, Initial residual = 0.167453, Final residual = 0.0001164, No Iterations 107
[OGL LOG] init_host_sparsity_pattern : 129 ms
[OGL LOG] matrix not stored update host matrix
[OGL LOG] update_host_mtx : 64 ms
[OGL LOG] matrix is not yet sorted, sorting host matrix
[OGL LOG] sort_host_mtx_sparsity_pattern : 92 ms
[OGL LOG] sort_host_mtx : 54 ms
[OGL LOG] init_preconditioner : 0 ms
[OGL LOG] solve : 8414 ms
noneompGKOCG:  Solving for p, Initial residual = 0.480071, Final residual = 0.286007, No Iterations 1000
time step continuity errors : sum local = 0.0466915, global = -0.000526818, cumulative = -0.0023217
smoothSolver:  Solving for nuTilda, Initial residual = 0.0575811, Final residual = 0.00370257, No Iterations 4
ExecutionTime = 511.11 s  ClockTime = 82 s

End

