/*---------------------------------------------------------------------------*\
  =========                 |
  \\      /  F ield         | OpenFOAM: The Open Source CFD Toolbox
   \\    /   O peration     | Website:  https://openfoam.org
    \\  /    A nd           | Version:  8
     \\/     M anipulation  |
\*---------------------------------------------------------------------------*/
Build  : 8-13d66902f78c
Exec   : simpleFoam
Date   : Jul 04 2021
Time   : 11:55:03
Host   : "uc2n420.localdomain"
PID    : 1148137
I/O    : uncollated
Case   : /pfs/data5/home/kit/scc/nq7776/code/OGL_DATA/airFoil2D/v0.1-136-g40fef35/f584ccac99/IntelXeonGold6230CPU@2.10GHz/Test_2021-07-04-10:19:03/3/p-U-BiCGStab-GKO-none-omp/airFoil2D
nProcs : 1
sigFpe : Enabling floating point exception trapping (FOAM_SIGFPE).
fileModificationChecking : Monitoring run-time modified files using timeStampMaster (fileModificationSkew 10)
allowSystemOperations : Allowing user-supplied system call operations

// * * * * * * * * * * * * * * * * * * * * * * * * * * * * * * * * * * * * * //
Create time

Create mesh for time = 0


SIMPLE: Convergence criteria found
        p: tolerance 1e-05
        U: tolerance 1e-05
        nuTilda: tolerance 1e-05

Reading field p

Reading field U

Reading/calculating face flux field phi

Selecting incompressible transport model Newtonian
Selecting turbulence model type RAS
Selecting RAS turbulence model SpalartAllmaras
Selecting patchDistMethod meshWave
RAS
{
    model           SpalartAllmaras;
    turbulence      on;
    printCoeffs     on;
    sigmaNut        0.66666;
    kappa           0.41;
    Cb1             0.1355;
    Cb2             0.622;
    Cw2             0.3;
    Cw3             2;
    Cv1             7.1;
    Cs              0.3;
}

No MRF models present

No finite volume options present

Starting time loop

Time = 1

[OGL LOG] init_host_sparsity_pattern : 135 ms
[OGL LOG] matrix not stored update host matrix
[OGL LOG] update_host_mtx : 72 ms
[OGL LOG] matrix is not yet sorted, compute sorting idxs
[OGL LOG] compute_sort : 4566 ms
[OGL LOG] matrix is not yet sorted, sorting host matrix
[OGL LOG] sort_host_mtx_sparsity_pattern : 96 ms
[OGL LOG] sort_host_mtx : 56 ms
[OGL LOG] init_preconditioner : 0 ms
[OGL LOG] solve : 912 ms
noneompGKOBiCGStab:  Solving for Ux, Initial residual = 127.993, Final residual = 0.124709, No Iterations 52
[OGL LOG] init_host_sparsity_pattern : 129 ms
[OGL LOG] matrix not stored update host matrix
[OGL LOG] update_host_mtx : 63 ms
[OGL LOG] matrix is not yet sorted, sorting host matrix
[OGL LOG] sort_host_mtx_sparsity_pattern : 94 ms
[OGL LOG] sort_host_mtx : 61 ms
[OGL LOG] init_preconditioner : 0 ms
[OGL LOG] solve : 1002 ms
noneompGKOBiCGStab:  Solving for Uy, Initial residual = 135.712, Final residual = 0.132675, No Iterations 52
[OGL LOG] init_host_sparsity_pattern : 134 ms
[OGL LOG] matrix not stored update host matrix
[OGL LOG] update_host_mtx : 67 ms
[OGL LOG] matrix is not yet sorted, sorting host matrix
[OGL LOG] sort_host_mtx_sparsity_pattern : 98 ms
[OGL LOG] sort_host_mtx : 53 ms
[OGL LOG] init_preconditioner : 0 ms
[OGL LOG] solve : 16676 ms
noneompGKOBiCGStab:  Solving for p, Initial residual = 1, Final residual = 0.0559662, No Iterations 1000
time step continuity errors : sum local = 0.00332466, global = -6.08422e-05, cumulative = -6.08422e-05
smoothSolver:  Solving for nuTilda, Initial residual = 1, Final residual = 0.0367574, No Iterations 2
ExecutionTime = 159.28 s  ClockTime = 29 s

Time = 2

[OGL LOG] init_host_sparsity_pattern : 130 ms
[OGL LOG] matrix not stored update host matrix
[OGL LOG] update_host_mtx : 67 ms
[OGL LOG] matrix is not yet sorted, sorting host matrix
[OGL LOG] sort_host_mtx_sparsity_pattern : 98 ms
[OGL LOG] sort_host_mtx : 61 ms
[OGL LOG] init_preconditioner : 0 ms
[OGL LOG] solve : 2079 ms
noneompGKOBiCGStab:  Solving for Ux, Initial residual = 0.457346, Final residual = 0.00045198, No Iterations 114
[OGL LOG] init_host_sparsity_pattern : 129 ms
[OGL LOG] matrix not stored update host matrix
[OGL LOG] update_host_mtx : 62 ms
[OGL LOG] matrix is not yet sorted, sorting host matrix
[OGL LOG] sort_host_mtx_sparsity_pattern : 94 ms
[OGL LOG] sort_host_mtx : 61 ms
[OGL LOG] init_preconditioner : 0 ms
[OGL LOG] solve : 1918 ms
noneompGKOBiCGStab:  Solving for Uy, Initial residual = 0.56401, Final residual = 0.00055044, No Iterations 105
[OGL LOG] init_host_sparsity_pattern : 129 ms
[OGL LOG] matrix not stored update host matrix
[OGL LOG] update_host_mtx : 64 ms
[OGL LOG] matrix is not yet sorted, sorting host matrix
[OGL LOG] sort_host_mtx_sparsity_pattern : 95 ms
[OGL LOG] sort_host_mtx : 53 ms
[OGL LOG] init_preconditioner : 0 ms
[OGL LOG] solve : 16463 ms
noneompGKOBiCGStab:  Solving for p, Initial residual = 0.443797, Final residual = 0.022771, No Iterations 1000
time step continuity errors : sum local = 0.00206735, global = -0.000285421, cumulative = -0.000346264
smoothSolver:  Solving for nuTilda, Initial residual = 0.115938, Final residual = 0.00322192, No Iterations 4
ExecutionTime = 324.81 s  ClockTime = 52 s

Time = 3

[OGL LOG] init_host_sparsity_pattern : 129 ms
[OGL LOG] matrix not stored update host matrix
[OGL LOG] update_host_mtx : 63 ms
[OGL LOG] matrix is not yet sorted, sorting host matrix
[OGL LOG] sort_host_mtx_sparsity_pattern : 103 ms
[OGL LOG] sort_host_mtx : 56 ms
[OGL LOG] init_preconditioner : 0 ms
[OGL LOG] solve : 1877 ms
noneompGKOBiCGStab:  Solving for Ux, Initial residual = 0.269139, Final residual = 0.000263187, No Iterations 102
[OGL LOG] init_host_sparsity_pattern : 129 ms
[OGL LOG] matrix not stored update host matrix
[OGL LOG] update_host_mtx : 62 ms
[OGL LOG] matrix is not yet sorted, sorting host matrix
[OGL LOG] sort_host_mtx_sparsity_pattern : 99 ms
[OGL LOG] sort_host_mtx : 56 ms
[OGL LOG] init_preconditioner : 0 ms
[OGL LOG] solve : 1861 ms
noneompGKOBiCGStab:  Solving for Uy, Initial residual = 0.161566, Final residual = 0.000160991, No Iterations 101
[OGL LOG] init_host_sparsity_pattern : 129 ms
[OGL LOG] matrix not stored update host matrix
[OGL LOG] update_host_mtx : 64 ms
[OGL LOG] matrix is not yet sorted, sorting host matrix
[OGL LOG] sort_host_mtx_sparsity_pattern : 90 ms
[OGL LOG] sort_host_mtx : 54 ms
[OGL LOG] init_preconditioner : 0 ms
[OGL LOG] solve : 16908 ms
noneompGKOBiCGStab:  Solving for p, Initial residual = 0.250262, Final residual = 0.0236434, No Iterations 1000
time step continuity errors : sum local = 0.00248089, global = -0.000335182, cumulative = -0.000681445
smoothSolver:  Solving for nuTilda, Initial residual = 0.0568931, Final residual = 0.00322681, No Iterations 4
ExecutionTime = 491.85 s  ClockTime = 75 s

Time = 4

[OGL LOG] init_host_sparsity_pattern : 129 ms
[OGL LOG] matrix not stored update host matrix
[OGL LOG] update_host_mtx : 72 ms
[OGL LOG] matrix is not yet sorted, sorting host matrix
[OGL LOG] sort_host_mtx_sparsity_pattern : 97 ms
[OGL LOG] sort_host_mtx : 61 ms
[OGL LOG] init_preconditioner : 0 ms
[OGL LOG] solve : 2015 ms
noneompGKOBiCGStab:  Solving for Ux, Initial residual = 0.216666, Final residual = 0.000210864, No Iterations 109
[OGL LOG] init_host_sparsity_pattern : 135 ms
[OGL LOG] matrix not stored update host matrix
[OGL LOG] update_host_mtx : 62 ms
[OGL LOG] matrix is not yet sorted, sorting host matrix
[OGL LOG] sort_host_mtx_sparsity_pattern : 97 ms
[OGL LOG] sort_host_mtx : 61 ms
[OGL LOG] init_preconditioner : 0 ms
[OGL LOG] solve : 1711 ms
noneompGKOBiCGStab:  Solving for Uy, Initial residual = 0.153329, Final residual = 0.000149081, No Iterations 94
[OGL LOG] init_host_sparsity_pattern : 130 ms
[OGL LOG] matrix not stored update host matrix
[OGL LOG] update_host_mtx : 65 ms
[OGL LOG] matrix is not yet sorted, sorting host matrix
[OGL LOG] sort_host_mtx_sparsity_pattern : 90 ms
[OGL LOG] sort_host_mtx : 53 ms
[OGL LOG] init_preconditioner : 0 ms
[OGL LOG] solve : 16594 ms
noneompGKOBiCGStab:  Solving for p, Initial residual = 0.284118, Final residual = 0.0289584, No Iterations 1000
time step continuity errors : sum local = 0.00311215, global = -0.000180749, cumulative = -0.000862194
smoothSolver:  Solving for nuTilda, Initial residual = 0.0495013, Final residual = 0.00308772, No Iterations 4
ExecutionTime = 656.24 s  ClockTime = 97 s

Time = 5

[OGL LOG] init_host_sparsity_pattern : 129 ms
[OGL LOG] matrix not stored update host matrix
[OGL LOG] update_host_mtx : 63 ms
[OGL LOG] matrix is not yet sorted, sorting host matrix
[OGL LOG] sort_host_mtx_sparsity_pattern : 102 ms
[OGL LOG] sort_host_mtx : 56 ms
[OGL LOG] init_preconditioner : 0 ms
[OGL LOG] solve : 1925 ms
noneompGKOBiCGStab:  Solving for Ux, Initial residual = 0.178687, Final residual = 0.000170297, No Iterations 114
[OGL LOG] init_host_sparsity_pattern : 131 ms
[OGL LOG] matrix not stored update host matrix
[OGL LOG] update_host_mtx : 66 ms
[OGL LOG] matrix is not yet sorted, sorting host matrix
[OGL LOG] sort_host_mtx_sparsity_pattern : 99 ms
[OGL LOG] sort_host_mtx : 56 ms
[OGL LOG] init_preconditioner : 0 ms
[OGL LOG] solve : 1890 ms
noneompGKOBiCGStab:  Solving for Uy, Initial residual = 0.128525, Final residual = 8.37437e-05, No Iterations 103
[OGL LOG] init_host_sparsity_pattern : 129 ms
[OGL LOG] matrix not stored update host matrix
[OGL LOG] update_host_mtx : 64 ms
[OGL LOG] matrix is not yet sorted, sorting host matrix
[OGL LOG] sort_host_mtx_sparsity_pattern : 90 ms
[OGL LOG] sort_host_mtx : 53 ms
[OGL LOG] init_preconditioner : 0 ms
[OGL LOG] solve : 16579 ms
noneompGKOBiCGStab:  Solving for p, Initial residual = 0.263139, Final residual = 0.0221231, No Iterations 1000
time step continuity errors : sum local = 0.00262831, global = -0.000969571, cumulative = -0.00183177
smoothSolver:  Solving for nuTilda, Initial residual = 0.0475933, Final residual = 0.00306489, No Iterations 4
ExecutionTime = 821.2 s  ClockTime = 120 s

End

