/*---------------------------------------------------------------------------*\
  =========                 |
  \\      /  F ield         | OpenFOAM: The Open Source CFD Toolbox
   \\    /   O peration     | Website:  https://openfoam.org
    \\  /    A nd           | Version:  8
     \\/     M anipulation  |
\*---------------------------------------------------------------------------*/
Build  : 8-13d66902f78c
Exec   : simpleFoam
Date   : Jul 05 2021
Time   : 15:07:29
Host   : "uc2n556.localdomain"
PID    : 1115210
I/O    : uncollated
Case   : /pfs/data5/home/kit/scc/nq7776/code/OGL_DATA/airFoil2D/v0.1-136-g40fef35/f584ccac99/IntelXeonGold6230CPU@2.10GHz/Test_2021-07-05-12:42:28/3/p-BiCGStab-GKO-BJ-omp/airFoil2D
nProcs : 1
sigFpe : Enabling floating point exception trapping (FOAM_SIGFPE).
fileModificationChecking : Monitoring run-time modified files using timeStampMaster (fileModificationSkew 10)
allowSystemOperations : Allowing user-supplied system call operations

// * * * * * * * * * * * * * * * * * * * * * * * * * * * * * * * * * * * * * //
Create time

Create mesh for time = 0


SIMPLE: Convergence criteria found
        p: tolerance 1e-05
        U: tolerance 1e-05
        nuTilda: tolerance 1e-05

Reading field p

Reading field U

Reading/calculating face flux field phi

Selecting incompressible transport model Newtonian
Selecting turbulence model type RAS
Selecting RAS turbulence model SpalartAllmaras
Selecting patchDistMethod meshWave
RAS
{
    model           SpalartAllmaras;
    turbulence      on;
    printCoeffs     on;
    sigmaNut        0.66666;
    kappa           0.41;
    Cb1             0.1355;
    Cb2             0.622;
    Cw2             0.3;
    Cw3             2;
    Cv1             7.1;
    Cs              0.3;
}

No MRF models present

No finite volume options present

Starting time loop

Time = 1

smoothSolver:  Solving for Ux, Initial residual = 1, Final residual = 0.000579349, No Iterations 12
smoothSolver:  Solving for Uy, Initial residual = 0.999999, Final residual = 0.000271884, No Iterations 12
[OGL LOG] init_host_sparsity_pattern : 129 ms
[OGL LOG] matrix not stored update host matrix
[OGL LOG] update_host_mtx : 70 ms
[OGL LOG] matrix is not yet sorted, compute sorting idxs
[OGL LOG] compute_sort : 4581 ms
[OGL LOG] matrix is not yet sorted, sorting host matrix
[OGL LOG] sort_host_mtx_sparsity_pattern : 97 ms
[OGL LOG] sort_host_mtx : 53 ms
[OGL LOG] init_preconditioner : 56 ms
[OGL LOG] solve : 39336 ms
BJompGKOBiCGStab:  Solving for p, Initial residual = 1, Final residual = 0.0775184, No Iterations 1000
time step continuity errors : sum local = 0.000150402, global = 0.000100231, cumulative = 0.000100231
smoothSolver:  Solving for nuTilda, Initial residual = 1, Final residual = 0.0310593, No Iterations 2
ExecutionTime = 167.6 s  ClockTime = 50 s

Time = 2

smoothSolver:  Solving for Ux, Initial residual = 0.592974, Final residual = 0.000146602, No Iterations 12
smoothSolver:  Solving for Uy, Initial residual = 0.578147, Final residual = 0.0001437, No Iterations 12
[OGL LOG] init_host_sparsity_pattern : 129 ms
[OGL LOG] matrix not stored update host matrix
[OGL LOG] update_host_mtx : 64 ms
[OGL LOG] matrix is not yet sorted, sorting host matrix
[OGL LOG] sort_host_mtx_sparsity_pattern : 113 ms
[OGL LOG] sort_host_mtx : 53 ms
[OGL LOG] init_preconditioner : 0 ms
[OGL LOG] solve : 39721 ms
BJompGKOBiCGStab:  Solving for p, Initial residual = 0.0395604, Final residual = 0.00287673, No Iterations 1000
time step continuity errors : sum local = 0.00108397, global = 8.95942e-05, cumulative = 0.000189825
smoothSolver:  Solving for nuTilda, Initial residual = 0.0993669, Final residual = 0.00196523, No Iterations 4
ExecutionTime = 327.71 s  ClockTime = 92 s

Time = 3

smoothSolver:  Solving for Ux, Initial residual = 0.212404, Final residual = 5.36888e-05, No Iterations 12
smoothSolver:  Solving for Uy, Initial residual = 0.184876, Final residual = 4.67412e-05, No Iterations 12
[OGL LOG] init_host_sparsity_pattern : 129 ms
[OGL LOG] matrix not stored update host matrix
[OGL LOG] update_host_mtx : 64 ms
[OGL LOG] matrix is not yet sorted, sorting host matrix
[OGL LOG] sort_host_mtx_sparsity_pattern : 104 ms
[OGL LOG] sort_host_mtx : 54 ms
[OGL LOG] init_preconditioner : 0 ms
[OGL LOG] solve : 39366 ms
BJompGKOBiCGStab:  Solving for p, Initial residual = 0.0275283, Final residual = 0.0127054, No Iterations 1000
time step continuity errors : sum local = 0.00295182, global = -0.000190751, cumulative = -9.26435e-07
smoothSolver:  Solving for nuTilda, Initial residual = 0.0356955, Final residual = 0.00168382, No Iterations 4
ExecutionTime = 486.37 s  ClockTime = 133 s

Time = 4

smoothSolver:  Solving for Ux, Initial residual = 0.118867, Final residual = 0.000118335, No Iterations 10
smoothSolver:  Solving for Uy, Initial residual = 0.102666, Final residual = 2.52117e-05, No Iterations 12
[OGL LOG] init_host_sparsity_pattern : 129 ms
[OGL LOG] matrix not stored update host matrix
[OGL LOG] update_host_mtx : 64 ms
[OGL LOG] matrix is not yet sorted, sorting host matrix
[OGL LOG] sort_host_mtx_sparsity_pattern : 104 ms
[OGL LOG] sort_host_mtx : 54 ms
[OGL LOG] init_preconditioner : 0 ms
[OGL LOG] solve : 39458 ms
BJompGKOBiCGStab:  Solving for p, Initial residual = 0.0652987, Final residual = 0.00569147, No Iterations 1000
time step continuity errors : sum local = 0.00130704, global = -0.000369902, cumulative = -0.000370828
smoothSolver:  Solving for nuTilda, Initial residual = 0.0256553, Final residual = 0.00128706, No Iterations 4
ExecutionTime = 645.3 s  ClockTime = 174 s

Time = 5

smoothSolver:  Solving for Ux, Initial residual = 0.306843, Final residual = 7.78659e-05, No Iterations 12
smoothSolver:  Solving for Uy, Initial residual = 0.288746, Final residual = 7.31044e-05, No Iterations 12
[OGL LOG] init_host_sparsity_pattern : 129 ms
[OGL LOG] matrix not stored update host matrix
[OGL LOG] update_host_mtx : 63 ms
[OGL LOG] matrix is not yet sorted, sorting host matrix
[OGL LOG] sort_host_mtx_sparsity_pattern : 103 ms
[OGL LOG] sort_host_mtx : 53 ms
[OGL LOG] init_preconditioner : 0 ms
[OGL LOG] solve : 39713 ms
BJompGKOBiCGStab:  Solving for p, Initial residual = 0.0504375, Final residual = 0.00845926, No Iterations 1000
time step continuity errors : sum local = 0.00214519, global = -0.000274396, cumulative = -0.000645224
smoothSolver:  Solving for nuTilda, Initial residual = 0.0191828, Final residual = 0.00102055, No Iterations 4
ExecutionTime = 805.39 s  ClockTime = 215 s

End

