/*---------------------------------------------------------------------------*\
  =========                 |
  \\      /  F ield         | OpenFOAM: The Open Source CFD Toolbox
   \\    /   O peration     | Website:  https://openfoam.org
    \\  /    A nd           | Version:  8
     \\/     M anipulation  |
\*---------------------------------------------------------------------------*/
Build  : 8-13d66902f78c
Exec   : simpleFoam
Date   : Jul 04 2021
Time   : 10:12:49
Host   : "uc2n452.localdomain"
PID    : 2589803
I/O    : uncollated
Case   : /pfs/data5/home/kit/scc/nq7776/code/OGL_DATA/airFoil2D/v0.1-136-g40fef35/f584ccac99/IntelXeonGold6230CPU@2.10GHz/Test_2021-07-04-09:25:23/3/p-CG-GKO-none-omp/airFoil2D
nProcs : 1
sigFpe : Enabling floating point exception trapping (FOAM_SIGFPE).
fileModificationChecking : Monitoring run-time modified files using timeStampMaster (fileModificationSkew 10)
allowSystemOperations : Allowing user-supplied system call operations

// * * * * * * * * * * * * * * * * * * * * * * * * * * * * * * * * * * * * * //
Create time

Create mesh for time = 0


SIMPLE: Convergence criteria found
        p: tolerance 1e-05
        U: tolerance 1e-05
        nuTilda: tolerance 1e-05

Reading field p

Reading field U

Reading/calculating face flux field phi

Selecting incompressible transport model Newtonian
Selecting turbulence model type RAS
Selecting RAS turbulence model SpalartAllmaras
Selecting patchDistMethod meshWave
RAS
{
    model           SpalartAllmaras;
    turbulence      on;
    printCoeffs     on;
    sigmaNut        0.66666;
    kappa           0.41;
    Cb1             0.1355;
    Cb2             0.622;
    Cw2             0.3;
    Cw3             2;
    Cv1             7.1;
    Cs              0.3;
}

No MRF models present

No finite volume options present

Starting time loop

Time = 1

smoothSolver:  Solving for Ux, Initial residual = 1, Final residual = 0.000579349, No Iterations 12
smoothSolver:  Solving for Uy, Initial residual = 0.999999, Final residual = 0.000271884, No Iterations 12
[OGL LOG] init_host_sparsity_pattern : 129 ms
[OGL LOG] matrix not stored update host matrix
[OGL LOG] update_host_mtx : 76 ms
[OGL LOG] matrix is not yet sorted, compute sorting idxs
[OGL LOG] compute_sort : 4564 ms
[OGL LOG] matrix is not yet sorted, sorting host matrix
[OGL LOG] sort_host_mtx_sparsity_pattern : 97 ms
[OGL LOG] sort_host_mtx : 60 ms
[OGL LOG] init_preconditioner : 0 ms
[OGL LOG] solve : 10606 ms
noneompGKOCG:  Solving for p, Initial residual = 1, Final residual = 33.503, No Iterations 1000
time step continuity errors : sum local = 0.065003, global = 1.0874e-06, cumulative = 1.0874e-06
smoothSolver:  Solving for nuTilda, Initial residual = 1, Final residual = 0.0305767, No Iterations 2
ExecutionTime = 52.84 s  ClockTime = 21 s

Time = 2

smoothSolver:  Solving for Ux, Initial residual = 0.311641, Final residual = 0.000299688, No Iterations 10
smoothSolver:  Solving for Uy, Initial residual = 0.349535, Final residual = 8.58611e-05, No Iterations 12
[OGL LOG] init_host_sparsity_pattern : 129 ms
[OGL LOG] matrix not stored update host matrix
[OGL LOG] update_host_mtx : 63 ms
[OGL LOG] matrix is not yet sorted, sorting host matrix
[OGL LOG] sort_host_mtx_sparsity_pattern : 111 ms
[OGL LOG] sort_host_mtx : 53 ms
[OGL LOG] init_preconditioner : 0 ms
[OGL LOG] solve : 11155 ms
noneompGKOCG:  Solving for p, Initial residual = 2.49878, Final residual = 1.21238, No Iterations 1000
time step continuity errors : sum local = 0.0412335, global = 3.36392e-06, cumulative = 4.45132e-06
smoothSolver:  Solving for nuTilda, Initial residual = 0.0941163, Final residual = 0.00907899, No Iterations 2
ExecutionTime = 98.92 s  ClockTime = 34 s

Time = 3

smoothSolver:  Solving for Ux, Initial residual = 0.151749, Final residual = 0.000150494, No Iterations 10
smoothSolver:  Solving for Uy, Initial residual = 0.101294, Final residual = 2.46548e-05, No Iterations 12
[OGL LOG] init_host_sparsity_pattern : 129 ms
[OGL LOG] matrix not stored update host matrix
[OGL LOG] update_host_mtx : 63 ms
[OGL LOG] matrix is not yet sorted, sorting host matrix
[OGL LOG] sort_host_mtx_sparsity_pattern : 103 ms
[OGL LOG] sort_host_mtx : 54 ms
[OGL LOG] init_preconditioner : 0 ms
[OGL LOG] solve : 11266 ms
noneompGKOCG:  Solving for p, Initial residual = 1.30332, Final residual = 1.09999, No Iterations 1000
time step continuity errors : sum local = 0.0418371, global = -6.16143e-05, cumulative = -5.7163e-05
smoothSolver:  Solving for nuTilda, Initial residual = 0.0324997, Final residual = 0.00135544, No Iterations 4
ExecutionTime = 145.45 s  ClockTime = 46 s

Time = 4

smoothSolver:  Solving for Ux, Initial residual = 0.167788, Final residual = 4.07133e-05, No Iterations 12
smoothSolver:  Solving for Uy, Initial residual = 0.106294, Final residual = 2.59244e-05, No Iterations 12
[OGL LOG] init_host_sparsity_pattern : 129 ms
[OGL LOG] matrix not stored update host matrix
[OGL LOG] update_host_mtx : 63 ms
[OGL LOG] matrix is not yet sorted, sorting host matrix
[OGL LOG] sort_host_mtx_sparsity_pattern : 103 ms
[OGL LOG] sort_host_mtx : 54 ms
[OGL LOG] init_preconditioner : 0 ms
[OGL LOG] solve : 10313 ms
noneompGKOCG:  Solving for p, Initial residual = 1.33649, Final residual = 0.975563, No Iterations 1000
time step continuity errors : sum local = 0.038153, global = -0.000792053, cumulative = -0.000849216
smoothSolver:  Solving for nuTilda, Initial residual = 0.0221818, Final residual = 0.00115608, No Iterations 4
ExecutionTime = 188.11 s  ClockTime = 58 s

Time = 5

smoothSolver:  Solving for Ux, Initial residual = 0.182477, Final residual = 4.43538e-05, No Iterations 12
smoothSolver:  Solving for Uy, Initial residual = 0.155218, Final residual = 3.90971e-05, No Iterations 12
[OGL LOG] init_host_sparsity_pattern : 129 ms
[OGL LOG] matrix not stored update host matrix
[OGL LOG] update_host_mtx : 64 ms
[OGL LOG] matrix is not yet sorted, sorting host matrix
[OGL LOG] sort_host_mtx_sparsity_pattern : 96 ms
[OGL LOG] sort_host_mtx : 54 ms
[OGL LOG] init_preconditioner : 0 ms
[OGL LOG] solve : 11151 ms
noneompGKOCG:  Solving for p, Initial residual = 0.984452, Final residual = 1.00928, No Iterations 1000
time step continuity errors : sum local = 0.0533279, global = -0.0012257, cumulative = -0.00207492
smoothSolver:  Solving for nuTilda, Initial residual = 0.0188344, Final residual = 0.00109087, No Iterations 4
ExecutionTime = 234.18 s  ClockTime = 71 s

End

