/*---------------------------------------------------------------------------*\
  =========                 |
  \\      /  F ield         | OpenFOAM: The Open Source CFD Toolbox
   \\    /   O peration     | Website:  https://openfoam.org
    \\  /    A nd           | Version:  8
     \\/     M anipulation  |
\*---------------------------------------------------------------------------*/
Build  : 8-13d66902f78c
Exec   : simpleFoam
Date   : Jul 04 2021
Time   : 11:32:39
Host   : "uc2n410.localdomain"
PID    : 1337997
I/O    : uncollated
Case   : /pfs/data5/home/kit/scc/nq7776/code/OGL_DATA/airFoil2D/v0.1-136-g40fef35/f584ccac99/IntelXeonGold6230CPU@2.10GHz/Test_2021-07-04-09:37:33/3/p-CG-GKO-BJ-omp/airFoil2D
nProcs : 1
sigFpe : Enabling floating point exception trapping (FOAM_SIGFPE).
fileModificationChecking : Monitoring run-time modified files using timeStampMaster (fileModificationSkew 10)
allowSystemOperations : Allowing user-supplied system call operations

// * * * * * * * * * * * * * * * * * * * * * * * * * * * * * * * * * * * * * //
Create time

Create mesh for time = 0


SIMPLE: Convergence criteria found
        p: tolerance 1e-05
        U: tolerance 1e-05
        nuTilda: tolerance 1e-05

Reading field p

Reading field U

Reading/calculating face flux field phi

Selecting incompressible transport model Newtonian
Selecting turbulence model type RAS
Selecting RAS turbulence model SpalartAllmaras
Selecting patchDistMethod meshWave
RAS
{
    model           SpalartAllmaras;
    turbulence      on;
    printCoeffs     on;
    sigmaNut        0.66666;
    kappa           0.41;
    Cb1             0.1355;
    Cb2             0.622;
    Cw2             0.3;
    Cw3             2;
    Cv1             7.1;
    Cs              0.3;
}

No MRF models present

No finite volume options present

Starting time loop

Time = 1

smoothSolver:  Solving for Ux, Initial residual = 1, Final residual = 0.000579349, No Iterations 12
smoothSolver:  Solving for Uy, Initial residual = 0.999999, Final residual = 0.000271884, No Iterations 12
[OGL LOG] init_host_sparsity_pattern : 130 ms
[OGL LOG] matrix not stored update host matrix
[OGL LOG] update_host_mtx : 70 ms
[OGL LOG] matrix is not yet sorted, compute sorting idxs
[OGL LOG] compute_sort : 4547 ms
[OGL LOG] matrix is not yet sorted, sorting host matrix
[OGL LOG] sort_host_mtx_sparsity_pattern : 96 ms
[OGL LOG] sort_host_mtx : 53 ms
[OGL LOG] init_preconditioner : 19 ms
 CG create  precond 
[OGL LOG] solve : 12119 ms
BJompGKOCG:  Solving for p, Initial residual = 1, Final residual = 2.17025, No Iterations 1000
time step continuity errors : sum local = 0.00421076, global = 0.000175642, cumulative = 0.000175642
smoothSolver:  Solving for nuTilda, Initial residual = 1, Final residual = 0.0310671, No Iterations 2
ExecutionTime = 782.75 s  ClockTime = 23 s

Time = 2

smoothSolver:  Solving for Ux, Initial residual = 0.596795, Final residual = 0.00014794, No Iterations 12
smoothSolver:  Solving for Uy, Initial residual = 0.572115, Final residual = 0.000141775, No Iterations 12
[OGL LOG] init_host_sparsity_pattern : 130 ms
[OGL LOG] matrix not stored update host matrix
[OGL LOG] update_host_mtx : 63 ms
[OGL LOG] matrix is not yet sorted, sorting host matrix
[OGL LOG] sort_host_mtx_sparsity_pattern : 109 ms
[OGL LOG] sort_host_mtx : 53 ms
[OGL LOG] init_preconditioner : 0 ms
 CG create  precond 
[OGL LOG] solve : 11821 ms
BJompGKOCG:  Solving for p, Initial residual = 0.0482112, Final residual = 0.0299551, No Iterations 1000
time step continuity errors : sum local = 0.0115098, global = 0.000126689, cumulative = 0.000302331
smoothSolver:  Solving for nuTilda, Initial residual = 0.0993328, Final residual = 0.00196383, No Iterations 4
ExecutionTime = 1538.39 s  ClockTime = 37 s

Time = 3

smoothSolver:  Solving for Ux, Initial residual = 0.212496, Final residual = 5.37227e-05, No Iterations 12
smoothSolver:  Solving for Uy, Initial residual = 0.186561, Final residual = 4.72427e-05, No Iterations 12
[OGL LOG] init_host_sparsity_pattern : 130 ms
[OGL LOG] matrix not stored update host matrix
[OGL LOG] update_host_mtx : 64 ms
[OGL LOG] matrix is not yet sorted, sorting host matrix
[OGL LOG] sort_host_mtx_sparsity_pattern : 99 ms
[OGL LOG] sort_host_mtx : 54 ms
[OGL LOG] init_preconditioner : 0 ms
 CG create  precond 
[OGL LOG] solve : 12341 ms
BJompGKOCG:  Solving for p, Initial residual = 0.077743, Final residual = 0.0492308, No Iterations 1000
time step continuity errors : sum local = 0.0116902, global = -0.000102263, cumulative = 0.000200068
smoothSolver:  Solving for nuTilda, Initial residual = 0.0357807, Final residual = 0.00169488, No Iterations 4
ExecutionTime = 2328.06 s  ClockTime = 51 s

Time = 4

smoothSolver:  Solving for Ux, Initial residual = 0.0925256, Final residual = 9.20326e-05, No Iterations 10
smoothSolver:  Solving for Uy, Initial residual = 0.0870007, Final residual = 2.1647e-05, No Iterations 12
[OGL LOG] init_host_sparsity_pattern : 130 ms
[OGL LOG] matrix not stored update host matrix
[OGL LOG] update_host_mtx : 64 ms
[OGL LOG] matrix is not yet sorted, sorting host matrix
[OGL LOG] sort_host_mtx_sparsity_pattern : 98 ms
[OGL LOG] sort_host_mtx : 52 ms
[OGL LOG] init_preconditioner : 0 ms
 CG create  precond 
[OGL LOG] solve : 12789 ms
BJompGKOCG:  Solving for p, Initial residual = 0.140918, Final residual = 0.0430729, No Iterations 1000
time step continuity errors : sum local = 0.00710168, global = -0.000313583, cumulative = -0.000113515
smoothSolver:  Solving for nuTilda, Initial residual = 0.0257817, Final residual = 0.00131743, No Iterations 4
ExecutionTime = 3145.57 s  ClockTime = 65 s

Time = 5

smoothSolver:  Solving for Ux, Initial residual = 0.256035, Final residual = 6.48132e-05, No Iterations 12
smoothSolver:  Solving for Uy, Initial residual = 0.237556, Final residual = 5.97475e-05, No Iterations 12
[OGL LOG] init_host_sparsity_pattern : 130 ms
[OGL LOG] matrix not stored update host matrix
[OGL LOG] update_host_mtx : 64 ms
[OGL LOG] matrix is not yet sorted, sorting host matrix
[OGL LOG] sort_host_mtx_sparsity_pattern : 98 ms
[OGL LOG] sort_host_mtx : 54 ms
[OGL LOG] init_preconditioner : 0 ms
 CG create  precond 
[OGL LOG] solve : 13185 ms
BJompGKOCG:  Solving for p, Initial residual = 0.0716169, Final residual = 0.042414, No Iterations 1000
time step continuity errors : sum local = 0.0115287, global = -0.000364462, cumulative = -0.000477977
smoothSolver:  Solving for nuTilda, Initial residual = 0.0198366, Final residual = 0.00104882, No Iterations 4
ExecutionTime = 3988.51 s  ClockTime = 80 s

End

