/*---------------------------------------------------------------------------*\
  =========                 |
  \\      /  F ield         | OpenFOAM: The Open Source CFD Toolbox
   \\    /   O peration     | Website:  https://openfoam.org
    \\  /    A nd           | Version:  8
     \\/     M anipulation  |
\*---------------------------------------------------------------------------*/
Build  : 8-13d66902f78c
Exec   : simpleFoam
Date   : Jul 04 2021
Time   : 09:36:05
Host   : "uc2n452.localdomain"
PID    : 2584703
I/O    : uncollated
Case   : /pfs/data5/home/kit/scc/nq7776/code/OGL_DATA/airFoil2D/v0.1-136-g40fef35/f584ccac99/IntelXeonGold6230CPU@2.10GHz/Test_2021-07-04-09:25:23/1/p-CG-GKO-none-omp/airFoil2D
nProcs : 1
sigFpe : Enabling floating point exception trapping (FOAM_SIGFPE).
fileModificationChecking : Monitoring run-time modified files using timeStampMaster (fileModificationSkew 10)
allowSystemOperations : Allowing user-supplied system call operations

// * * * * * * * * * * * * * * * * * * * * * * * * * * * * * * * * * * * * * //
Create time

Create mesh for time = 0


SIMPLE: Convergence criteria found
        p: tolerance 1e-05
        U: tolerance 1e-05
        nuTilda: tolerance 1e-05

Reading field p

Reading field U

Reading/calculating face flux field phi

Selecting incompressible transport model Newtonian
Selecting turbulence model type RAS
Selecting RAS turbulence model SpalartAllmaras
Selecting patchDistMethod meshWave
RAS
{
    model           SpalartAllmaras;
    turbulence      on;
    printCoeffs     on;
    sigmaNut        0.66666;
    kappa           0.41;
    Cb1             0.1355;
    Cb2             0.622;
    Cw2             0.3;
    Cw3             2;
    Cv1             7.1;
    Cs              0.3;
}

No MRF models present

No finite volume options present

Starting time loop

Time = 1

smoothSolver:  Solving for Ux, Initial residual = 1, Final residual = 0.000531638, No Iterations 14
smoothSolver:  Solving for Uy, Initial residual = 1, Final residual = 0.000467931, No Iterations 14
[OGL LOG] init_host_sparsity_pattern : 8 ms
[OGL LOG] matrix not stored update host matrix
[OGL LOG] update_host_mtx : 4 ms
[OGL LOG] matrix is not yet sorted, compute sorting idxs
[OGL LOG] compute_sort : 225 ms
[OGL LOG] matrix is not yet sorted, sorting host matrix
[OGL LOG] sort_host_mtx_sparsity_pattern : 5 ms
[OGL LOG] sort_host_mtx : 3 ms
[OGL LOG] init_preconditioner : 0 ms
[OGL LOG] solve : 505 ms
noneompGKOCG:  Solving for p, Initial residual = 1, Final residual = 4.7382, No Iterations 1000
time step continuity errors : sum local = 0.0108626, global = -0.000745982, cumulative = -0.000745982
smoothSolver:  Solving for nuTilda, Initial residual = 1, Final residual = 0.0319081, No Iterations 2
ExecutionTime = 4.65 s  ClockTime = 1 s

Time = 2

smoothSolver:  Solving for Ux, Initial residual = 0.548031, Final residual = 0.000470476, No Iterations 10
smoothSolver:  Solving for Uy, Initial residual = 0.575804, Final residual = 0.000503543, No Iterations 10
[OGL LOG] init_host_sparsity_pattern : 8 ms
[OGL LOG] matrix not stored update host matrix
[OGL LOG] update_host_mtx : 3 ms
[OGL LOG] matrix is not yet sorted, sorting host matrix
[OGL LOG] sort_host_mtx_sparsity_pattern : 5 ms
[OGL LOG] sort_host_mtx : 3 ms
[OGL LOG] init_preconditioner : 0 ms
[OGL LOG] solve : 617 ms
noneompGKOCG:  Solving for p, Initial residual = 0.910385, Final residual = 0.388918, No Iterations 1000
time step continuity errors : sum local = 0.00831805, global = 0.000282025, cumulative = -0.000463957
smoothSolver:  Solving for nuTilda, Initial residual = 0.0531595, Final residual = 0.00160055, No Iterations 4
ExecutionTime = 9.7 s  ClockTime = 2 s

Time = 3

smoothSolver:  Solving for Ux, Initial residual = 0.199084, Final residual = 0.000184638, No Iterations 10
smoothSolver:  Solving for Uy, Initial residual = 0.169233, Final residual = 0.00015458, No Iterations 10
[OGL LOG] init_host_sparsity_pattern : 8 ms
[OGL LOG] matrix not stored update host matrix
[OGL LOG] update_host_mtx : 3 ms
[OGL LOG] matrix is not yet sorted, sorting host matrix
[OGL LOG] sort_host_mtx_sparsity_pattern : 5 ms
[OGL LOG] sort_host_mtx : 3 ms
[OGL LOG] init_preconditioner : 0 ms
[OGL LOG] solve : 572 ms
noneompGKOCG:  Solving for p, Initial residual = 0.126624, Final residual = 0.108074, No Iterations 1000
time step continuity errors : sum local = 0.0102299, global = 0.00070582, cumulative = 0.000241863
smoothSolver:  Solving for nuTilda, Initial residual = 0.0332239, Final residual = 0.00139949, No Iterations 4
ExecutionTime = 14.37 s  ClockTime = 3 s

Time = 4

smoothSolver:  Solving for Ux, Initial residual = 0.155796, Final residual = 0.000126471, No Iterations 10
smoothSolver:  Solving for Uy, Initial residual = 0.153171, Final residual = 0.000134439, No Iterations 10
[OGL LOG] init_host_sparsity_pattern : 8 ms
[OGL LOG] matrix not stored update host matrix
[OGL LOG] update_host_mtx : 3 ms
[OGL LOG] matrix is not yet sorted, sorting host matrix
[OGL LOG] sort_host_mtx_sparsity_pattern : 5 ms
[OGL LOG] sort_host_mtx : 3 ms
[OGL LOG] init_preconditioner : 0 ms
[OGL LOG] solve : 568 ms
noneompGKOCG:  Solving for p, Initial residual = 0.161001, Final residual = 0.0846742, No Iterations 1000
time step continuity errors : sum local = 0.0076948, global = 8.93481e-05, cumulative = 0.000331211
smoothSolver:  Solving for nuTilda, Initial residual = 0.0274047, Final residual = 0.00120866, No Iterations 4
ExecutionTime = 19.01 s  ClockTime = 3 s

Time = 5

smoothSolver:  Solving for Ux, Initial residual = 0.191618, Final residual = 0.000173932, No Iterations 10
smoothSolver:  Solving for Uy, Initial residual = 0.166097, Final residual = 0.00014481, No Iterations 10
[OGL LOG] init_host_sparsity_pattern : 7 ms
[OGL LOG] matrix not stored update host matrix
[OGL LOG] update_host_mtx : 3 ms
[OGL LOG] matrix is not yet sorted, sorting host matrix
[OGL LOG] sort_host_mtx_sparsity_pattern : 5 ms
[OGL LOG] sort_host_mtx : 3 ms
[OGL LOG] init_preconditioner : 0 ms
[OGL LOG] solve : 585 ms
noneompGKOCG:  Solving for p, Initial residual = 0.330225, Final residual = 0.118007, No Iterations 1000
time step continuity errors : sum local = 0.00457666, global = -0.000224235, cumulative = 0.000106976
smoothSolver:  Solving for nuTilda, Initial residual = 0.0229509, Final residual = 0.000973936, No Iterations 4
ExecutionTime = 23.78 s  ClockTime = 4 s

End

