/*---------------------------------------------------------------------------*\
  =========                 |
  \\      /  F ield         | OpenFOAM: The Open Source CFD Toolbox
   \\    /   O peration     | Website:  https://openfoam.org
    \\  /    A nd           | Version:  8
     \\/     M anipulation  |
\*---------------------------------------------------------------------------*/
Build  : 8-13d66902f78c
Exec   : simpleFoam
Date   : Jul 04 2021
Time   : 10:34:36
Host   : "uc2n449.localdomain"
PID    : 2081736
I/O    : uncollated
Case   : /pfs/data5/home/kit/scc/nq7776/code/OGL_DATA/airFoil2D/v0.1-136-g40fef35/f584ccac99/IntelXeonGold6230CPU@2.10GHz/Test_2021-07-04-10:23:01/1/p-U-CG-GKO-BJ-omp/airFoil2D
nProcs : 1
sigFpe : Enabling floating point exception trapping (FOAM_SIGFPE).
fileModificationChecking : Monitoring run-time modified files using timeStampMaster (fileModificationSkew 10)
allowSystemOperations : Allowing user-supplied system call operations

// * * * * * * * * * * * * * * * * * * * * * * * * * * * * * * * * * * * * * //
Create time

Create mesh for time = 0


SIMPLE: Convergence criteria found
        p: tolerance 1e-05
        U: tolerance 1e-05
        nuTilda: tolerance 1e-05

Reading field p

Reading field U

Reading/calculating face flux field phi

Selecting incompressible transport model Newtonian
Selecting turbulence model type RAS
Selecting RAS turbulence model SpalartAllmaras
Selecting patchDistMethod meshWave
RAS
{
    model           SpalartAllmaras;
    turbulence      on;
    printCoeffs     on;
    sigmaNut        0.66666;
    kappa           0.41;
    Cb1             0.1355;
    Cb2             0.622;
    Cw2             0.3;
    Cw3             2;
    Cv1             7.1;
    Cs              0.3;
}

No MRF models present

No finite volume options present

Starting time loop

Time = 1

[OGL LOG] init_host_sparsity_pattern : 8 ms
[OGL LOG] matrix not stored update host matrix
[OGL LOG] update_host_mtx : 3 ms
[OGL LOG] matrix is not yet sorted, compute sorting idxs
[OGL LOG] compute_sort : 224 ms
[OGL LOG] matrix is not yet sorted, sorting host matrix
[OGL LOG] sort_host_mtx_sparsity_pattern : 5 ms
[OGL LOG] sort_host_mtx : 3 ms
[OGL LOG] init_preconditioner : 2 ms
[OGL LOG] solve : 19 ms
BJompGKOBiCGStab:  Solving for Ux, Initial residual = 130.982, Final residual = 0.127301, No Iterations 11
[OGL LOG] init_host_sparsity_pattern : 8 ms
[OGL LOG] matrix not stored update host matrix
[OGL LOG] update_host_mtx : 4 ms
[OGL LOG] matrix is not yet sorted, sorting host matrix
[OGL LOG] sort_host_mtx_sparsity_pattern : 5 ms
[OGL LOG] sort_host_mtx : 3 ms
[OGL LOG] init_preconditioner : 1 ms
[OGL LOG] solve : 18 ms
BJompGKOBiCGStab:  Solving for Uy, Initial residual = 133.957, Final residual = 0.130881, No Iterations 11
[OGL LOG] init_host_sparsity_pattern : 8 ms
[OGL LOG] matrix not stored update host matrix
[OGL LOG] update_host_mtx : 3 ms
[OGL LOG] matrix is not yet sorted, sorting host matrix
[OGL LOG] sort_host_mtx_sparsity_pattern : 5 ms
[OGL LOG] sort_host_mtx : 3 ms
[OGL LOG] init_preconditioner : 1 ms
 CG create  precond 
[OGL LOG] solve : 642 ms
BJompGKOCG:  Solving for p, Initial residual = 1, Final residual = 0.000980728, No Iterations 748
time step continuity errors : sum local = 6.187e-05, global = -5.19109e-07, cumulative = -5.19109e-07
smoothSolver:  Solving for nuTilda, Initial residual = 1, Final residual = 0.0697577, No Iterations 2
ExecutionTime = 6.23 s  ClockTime = 1 s

Time = 2

[OGL LOG] init_host_sparsity_pattern : 8 ms
[OGL LOG] matrix not stored update host matrix
[OGL LOG] update_host_mtx : 3 ms
[OGL LOG] matrix is not yet sorted, sorting host matrix
[OGL LOG] sort_host_mtx_sparsity_pattern : 5 ms
[OGL LOG] sort_host_mtx : 3 ms
[OGL LOG] init_preconditioner : 0 ms
[OGL LOG] solve : 24 ms
BJompGKOBiCGStab:  Solving for Ux, Initial residual = 0.547997, Final residual = 0.000494016, No Iterations 13
[OGL LOG] init_host_sparsity_pattern : 8 ms
[OGL LOG] matrix not stored update host matrix
[OGL LOG] update_host_mtx : 3 ms
[OGL LOG] matrix is not yet sorted, sorting host matrix
[OGL LOG] sort_host_mtx_sparsity_pattern : 5 ms
[OGL LOG] sort_host_mtx : 3 ms
[OGL LOG] init_preconditioner : 0 ms
[OGL LOG] solve : 26 ms
BJompGKOBiCGStab:  Solving for Uy, Initial residual = 0.716441, Final residual = 0.000279457, No Iterations 14
[OGL LOG] init_host_sparsity_pattern : 7 ms
[OGL LOG] matrix not stored update host matrix
[OGL LOG] update_host_mtx : 3 ms
[OGL LOG] matrix is not yet sorted, sorting host matrix
[OGL LOG] sort_host_mtx_sparsity_pattern : 5 ms
[OGL LOG] sort_host_mtx : 3 ms
[OGL LOG] init_preconditioner : 0 ms
 CG create  precond 
[OGL LOG] solve : 916 ms
BJompGKOCG:  Solving for p, Initial residual = 0.222858, Final residual = 0.00148424, No Iterations 1000
time step continuity errors : sum local = 0.000257764, global = -5.18999e-06, cumulative = -5.7091e-06
smoothSolver:  Solving for nuTilda, Initial residual = 0.116889, Final residual = 0.0050996, No Iterations 4
ExecutionTime = 14.18 s  ClockTime = 2 s

Time = 3

[OGL LOG] init_host_sparsity_pattern : 8 ms
[OGL LOG] matrix not stored update host matrix
[OGL LOG] update_host_mtx : 3 ms
[OGL LOG] matrix is not yet sorted, sorting host matrix
[OGL LOG] sort_host_mtx_sparsity_pattern : 5 ms
[OGL LOG] sort_host_mtx : 3 ms
[OGL LOG] init_preconditioner : 0 ms
[OGL LOG] solve : 25 ms
BJompGKOBiCGStab:  Solving for Ux, Initial residual = 0.269364, Final residual = 0.000254116, No Iterations 12
[OGL LOG] init_host_sparsity_pattern : 8 ms
[OGL LOG] matrix not stored update host matrix
[OGL LOG] update_host_mtx : 3 ms
[OGL LOG] matrix is not yet sorted, sorting host matrix
[OGL LOG] sort_host_mtx_sparsity_pattern : 5 ms
[OGL LOG] sort_host_mtx : 3 ms
[OGL LOG] init_preconditioner : 0 ms
[OGL LOG] solve : 24 ms
BJompGKOBiCGStab:  Solving for Uy, Initial residual = 0.200252, Final residual = 0.000115274, No Iterations 11
[OGL LOG] init_host_sparsity_pattern : 8 ms
[OGL LOG] matrix not stored update host matrix
[OGL LOG] update_host_mtx : 3 ms
[OGL LOG] matrix is not yet sorted, sorting host matrix
[OGL LOG] sort_host_mtx_sparsity_pattern : 5 ms
[OGL LOG] sort_host_mtx : 3 ms
[OGL LOG] init_preconditioner : 0 ms
 CG create  precond 
[OGL LOG] solve : 909 ms
BJompGKOCG:  Solving for p, Initial residual = 0.150368, Final residual = 0.00215187, No Iterations 1000
time step continuity errors : sum local = 0.000394814, global = -4.56043e-06, cumulative = -1.02695e-05
smoothSolver:  Solving for nuTilda, Initial residual = 0.102656, Final residual = 0.00521053, No Iterations 4
ExecutionTime = 22.03 s  ClockTime = 3 s

Time = 4

[OGL LOG] init_host_sparsity_pattern : 8 ms
[OGL LOG] matrix not stored update host matrix
[OGL LOG] update_host_mtx : 3 ms
[OGL LOG] matrix is not yet sorted, sorting host matrix
[OGL LOG] sort_host_mtx_sparsity_pattern : 5 ms
[OGL LOG] sort_host_mtx : 3 ms
[OGL LOG] init_preconditioner : 0 ms
[OGL LOG] solve : 22 ms
BJompGKOBiCGStab:  Solving for Ux, Initial residual = 0.202462, Final residual = 0.000144036, No Iterations 12
[OGL LOG] init_host_sparsity_pattern : 8 ms
[OGL LOG] matrix not stored update host matrix
[OGL LOG] update_host_mtx : 3 ms
[OGL LOG] matrix is not yet sorted, sorting host matrix
[OGL LOG] sort_host_mtx_sparsity_pattern : 5 ms
[OGL LOG] sort_host_mtx : 3 ms
[OGL LOG] init_preconditioner : 0 ms
[OGL LOG] solve : 22 ms
BJompGKOBiCGStab:  Solving for Uy, Initial residual = 0.143769, Final residual = 0.000102598, No Iterations 12
[OGL LOG] init_host_sparsity_pattern : 8 ms
[OGL LOG] matrix not stored update host matrix
[OGL LOG] update_host_mtx : 4 ms
[OGL LOG] matrix is not yet sorted, sorting host matrix
[OGL LOG] sort_host_mtx_sparsity_pattern : 5 ms
[OGL LOG] sort_host_mtx : 3 ms
[OGL LOG] init_preconditioner : 0 ms
 CG create  precond 
[OGL LOG] solve : 918 ms
BJompGKOCG:  Solving for p, Initial residual = 0.277432, Final residual = 0.00186726, No Iterations 1000
time step continuity errors : sum local = 0.00018445, global = 5.81263e-06, cumulative = -4.4569e-06
smoothSolver:  Solving for nuTilda, Initial residual = 0.102959, Final residual = 0.00512565, No Iterations 4
ExecutionTime = 29.94 s  ClockTime = 4 s

Time = 5

[OGL LOG] init_host_sparsity_pattern : 8 ms
[OGL LOG] matrix not stored update host matrix
[OGL LOG] update_host_mtx : 3 ms
[OGL LOG] matrix is not yet sorted, sorting host matrix
[OGL LOG] sort_host_mtx_sparsity_pattern : 5 ms
[OGL LOG] sort_host_mtx : 3 ms
[OGL LOG] init_preconditioner : 0 ms
[OGL LOG] solve : 22 ms
BJompGKOBiCGStab:  Solving for Ux, Initial residual = 0.210147, Final residual = 0.000191071, No Iterations 12
[OGL LOG] init_host_sparsity_pattern : 8 ms
[OGL LOG] matrix not stored update host matrix
[OGL LOG] update_host_mtx : 3 ms
[OGL LOG] matrix is not yet sorted, sorting host matrix
[OGL LOG] sort_host_mtx_sparsity_pattern : 5 ms
[OGL LOG] sort_host_mtx : 3 ms
[OGL LOG] init_preconditioner : 0 ms
[OGL LOG] solve : 23 ms
BJompGKOBiCGStab:  Solving for Uy, Initial residual = 0.1571, Final residual = 8.72414e-05, No Iterations 13
[OGL LOG] init_host_sparsity_pattern : 8 ms
[OGL LOG] matrix not stored update host matrix
[OGL LOG] update_host_mtx : 3 ms
[OGL LOG] matrix is not yet sorted, sorting host matrix
[OGL LOG] sort_host_mtx_sparsity_pattern : 5 ms
[OGL LOG] sort_host_mtx : 3 ms
[OGL LOG] init_preconditioner : 0 ms
 CG create  precond 
[OGL LOG] solve : 904 ms
BJompGKOCG:  Solving for p, Initial residual = 0.216207, Final residual = 0.00184321, No Iterations 1000
time step continuity errors : sum local = 0.000218367, global = 3.70328e-06, cumulative = -7.53618e-07
smoothSolver:  Solving for nuTilda, Initial residual = 0.0979275, Final residual = 0.00485216, No Iterations 4
ExecutionTime = 37.74 s  ClockTime = 5 s

End

