/*---------------------------------------------------------------------------*\
  =========                 |
  \\      /  F ield         | OpenFOAM: The Open Source CFD Toolbox
   \\    /   O peration     | Website:  https://openfoam.org
    \\  /    A nd           | Version:  8
     \\/     M anipulation  |
\*---------------------------------------------------------------------------*/
Build  : 8-13d66902f78c
Exec   : simpleFoam
Date   : Jul 04 2021
Time   : 10:33:09
Host   : "uc2n390.localdomain"
PID    : 2133848
I/O    : uncollated
Case   : /pfs/data5/home/kit/scc/nq7776/code/OGL_DATA/airFoil2D/v0.1-136-g40fef35/f584ccac99/IntelXeonGold6230CPU@2.10GHz/Test_2021-07-04-10:23:35/1/p-U-BiCGStab-GKO-BJ-omp/airFoil2D
nProcs : 1
sigFpe : Enabling floating point exception trapping (FOAM_SIGFPE).
fileModificationChecking : Monitoring run-time modified files using timeStampMaster (fileModificationSkew 10)
allowSystemOperations : Allowing user-supplied system call operations

// * * * * * * * * * * * * * * * * * * * * * * * * * * * * * * * * * * * * * //
Create time

Create mesh for time = 0


SIMPLE: Convergence criteria found
        p: tolerance 1e-05
        U: tolerance 1e-05
        nuTilda: tolerance 1e-05

Reading field p

Reading field U

Reading/calculating face flux field phi

Selecting incompressible transport model Newtonian
Selecting turbulence model type RAS
Selecting RAS turbulence model SpalartAllmaras
Selecting patchDistMethod meshWave
RAS
{
    model           SpalartAllmaras;
    turbulence      on;
    printCoeffs     on;
    sigmaNut        0.66666;
    kappa           0.41;
    Cb1             0.1355;
    Cb2             0.622;
    Cw2             0.3;
    Cw3             2;
    Cv1             7.1;
    Cs              0.3;
}

No MRF models present

No finite volume options present

Starting time loop

Time = 1

[OGL LOG] init_host_sparsity_pattern : 8 ms
[OGL LOG] matrix not stored update host matrix
[OGL LOG] update_host_mtx : 4 ms
[OGL LOG] matrix is not yet sorted, compute sorting idxs
[OGL LOG] compute_sort : 224 ms
[OGL LOG] matrix is not yet sorted, sorting host matrix
[OGL LOG] sort_host_mtx_sparsity_pattern : 5 ms
[OGL LOG] sort_host_mtx : 3 ms
[OGL LOG] init_preconditioner : 6 ms
[OGL LOG] solve : 48 ms
BJompGKOBiCGStab:  Solving for Ux, Initial residual = 130.982, Final residual = 0.127301, No Iterations 11
[OGL LOG] init_host_sparsity_pattern : 8 ms
[OGL LOG] matrix not stored update host matrix
[OGL LOG] update_host_mtx : 3 ms
[OGL LOG] matrix is not yet sorted, sorting host matrix
[OGL LOG] sort_host_mtx_sparsity_pattern : 5 ms
[OGL LOG] sort_host_mtx : 3 ms
[OGL LOG] init_preconditioner : 6 ms
[OGL LOG] solve : 47 ms
BJompGKOBiCGStab:  Solving for Uy, Initial residual = 133.957, Final residual = 0.130881, No Iterations 11
[OGL LOG] init_host_sparsity_pattern : 8 ms
[OGL LOG] matrix not stored update host matrix
[OGL LOG] update_host_mtx : 3 ms
[OGL LOG] matrix is not yet sorted, sorting host matrix
[OGL LOG] sort_host_mtx_sparsity_pattern : 5 ms
[OGL LOG] sort_host_mtx : 3 ms
[OGL LOG] init_preconditioner : 6 ms
[OGL LOG] solve : 1924 ms
BJompGKOBiCGStab:  Solving for p, Initial residual = 1, Final residual = 0.000997094, No Iterations 449
time step continuity errors : sum local = 6.36587e-05, global = -3.81378e-05, cumulative = -3.81378e-05
smoothSolver:  Solving for nuTilda, Initial residual = 1, Final residual = 0.0697386, No Iterations 2
ExecutionTime = 4.71 s  ClockTime = 3 s

Time = 2

[OGL LOG] init_host_sparsity_pattern : 8 ms
[OGL LOG] matrix not stored update host matrix
[OGL LOG] update_host_mtx : 3 ms
[OGL LOG] matrix is not yet sorted, sorting host matrix
[OGL LOG] sort_host_mtx_sparsity_pattern : 5 ms
[OGL LOG] sort_host_mtx : 3 ms
[OGL LOG] init_preconditioner : 0 ms
[OGL LOG] solve : 67 ms
BJompGKOBiCGStab:  Solving for Ux, Initial residual = 0.548104, Final residual = 0.000485511, No Iterations 13
[OGL LOG] init_host_sparsity_pattern : 8 ms
[OGL LOG] matrix not stored update host matrix
[OGL LOG] update_host_mtx : 3 ms
[OGL LOG] matrix is not yet sorted, sorting host matrix
[OGL LOG] sort_host_mtx_sparsity_pattern : 5 ms
[OGL LOG] sort_host_mtx : 3 ms
[OGL LOG] init_preconditioner : 0 ms
[OGL LOG] solve : 72 ms
BJompGKOBiCGStab:  Solving for Uy, Initial residual = 0.715737, Final residual = 0.000277292, No Iterations 14
[OGL LOG] init_host_sparsity_pattern : 8 ms
[OGL LOG] matrix not stored update host matrix
[OGL LOG] update_host_mtx : 3 ms
[OGL LOG] matrix is not yet sorted, sorting host matrix
[OGL LOG] sort_host_mtx_sparsity_pattern : 5 ms
[OGL LOG] sort_host_mtx : 3 ms
[OGL LOG] init_preconditioner : 0 ms
[OGL LOG] solve : 3010 ms
BJompGKOBiCGStab:  Solving for p, Initial residual = 0.227359, Final residual = 0.000226715, No Iterations 691
time step continuity errors : sum local = 3.88017e-05, global = 3.74838e-05, cumulative = -6.54031e-07
smoothSolver:  Solving for nuTilda, Initial residual = 0.116889, Final residual = 0.00510007, No Iterations 4
ExecutionTime = 11.13 s  ClockTime = 6 s

Time = 3

[OGL LOG] init_host_sparsity_pattern : 8 ms
[OGL LOG] matrix not stored update host matrix
[OGL LOG] update_host_mtx : 3 ms
[OGL LOG] matrix is not yet sorted, sorting host matrix
[OGL LOG] sort_host_mtx_sparsity_pattern : 5 ms
[OGL LOG] sort_host_mtx : 3 ms
[OGL LOG] init_preconditioner : 0 ms
[OGL LOG] solve : 53 ms
BJompGKOBiCGStab:  Solving for Ux, Initial residual = 0.269203, Final residual = 0.000262127, No Iterations 12
[OGL LOG] init_host_sparsity_pattern : 8 ms
[OGL LOG] matrix not stored update host matrix
[OGL LOG] update_host_mtx : 3 ms
[OGL LOG] matrix is not yet sorted, sorting host matrix
[OGL LOG] sort_host_mtx_sparsity_pattern : 5 ms
[OGL LOG] sort_host_mtx : 3 ms
[OGL LOG] init_preconditioner : 0 ms
[OGL LOG] solve : 51 ms
BJompGKOBiCGStab:  Solving for Uy, Initial residual = 0.202828, Final residual = 0.000112719, No Iterations 11
[OGL LOG] init_host_sparsity_pattern : 8 ms
[OGL LOG] matrix not stored update host matrix
[OGL LOG] update_host_mtx : 4 ms
[OGL LOG] matrix is not yet sorted, sorting host matrix
[OGL LOG] sort_host_mtx_sparsity_pattern : 5 ms
[OGL LOG] sort_host_mtx : 3 ms
[OGL LOG] init_preconditioner : 0 ms
[OGL LOG] solve : 3783 ms
BJompGKOBiCGStab:  Solving for p, Initial residual = 0.148079, Final residual = 0.000138701, No Iterations 872
time step continuity errors : sum local = 3.63341e-05, global = 2.15546e-05, cumulative = 2.09006e-05
smoothSolver:  Solving for nuTilda, Initial residual = 0.10269, Final residual = 0.00521242, No Iterations 4
ExecutionTime = 19 s  ClockTime = 10 s

Time = 4

[OGL LOG] init_host_sparsity_pattern : 8 ms
[OGL LOG] matrix not stored update host matrix
[OGL LOG] update_host_mtx : 3 ms
[OGL LOG] matrix is not yet sorted, sorting host matrix
[OGL LOG] sort_host_mtx_sparsity_pattern : 5 ms
[OGL LOG] sort_host_mtx : 3 ms
[OGL LOG] init_preconditioner : 0 ms
[OGL LOG] solve : 55 ms
BJompGKOBiCGStab:  Solving for Ux, Initial residual = 0.20122, Final residual = 0.000144937, No Iterations 12
[OGL LOG] init_host_sparsity_pattern : 8 ms
[OGL LOG] matrix not stored update host matrix
[OGL LOG] update_host_mtx : 3 ms
[OGL LOG] matrix is not yet sorted, sorting host matrix
[OGL LOG] sort_host_mtx_sparsity_pattern : 5 ms
[OGL LOG] sort_host_mtx : 3 ms
[OGL LOG] init_preconditioner : 0 ms
[OGL LOG] solve : 51 ms
BJompGKOBiCGStab:  Solving for Uy, Initial residual = 0.144849, Final residual = 0.000141424, No Iterations 12
[OGL LOG] init_host_sparsity_pattern : 8 ms
[OGL LOG] matrix not stored update host matrix
[OGL LOG] update_host_mtx : 3 ms
[OGL LOG] matrix is not yet sorted, sorting host matrix
[OGL LOG] sort_host_mtx_sparsity_pattern : 5 ms
[OGL LOG] sort_host_mtx : 3 ms
[OGL LOG] init_preconditioner : 0 ms
[OGL LOG] solve : 3018 ms
BJompGKOBiCGStab:  Solving for p, Initial residual = 0.270027, Final residual = 0.000268372, No Iterations 713
time step continuity errors : sum local = 2.70578e-05, global = 9.15328e-06, cumulative = 3.00539e-05
smoothSolver:  Solving for nuTilda, Initial residual = 0.102842, Final residual = 0.00511986, No Iterations 4
ExecutionTime = 25.36 s  ClockTime = 13 s

Time = 5

[OGL LOG] init_host_sparsity_pattern : 8 ms
[OGL LOG] matrix not stored update host matrix
[OGL LOG] update_host_mtx : 3 ms
[OGL LOG] matrix is not yet sorted, sorting host matrix
[OGL LOG] sort_host_mtx_sparsity_pattern : 5 ms
[OGL LOG] sort_host_mtx : 3 ms
[OGL LOG] init_preconditioner : 0 ms
[OGL LOG] solve : 53 ms
BJompGKOBiCGStab:  Solving for Ux, Initial residual = 0.210365, Final residual = 0.000204657, No Iterations 12
[OGL LOG] init_host_sparsity_pattern : 8 ms
[OGL LOG] matrix not stored update host matrix
[OGL LOG] update_host_mtx : 3 ms
[OGL LOG] matrix is not yet sorted, sorting host matrix
[OGL LOG] sort_host_mtx_sparsity_pattern : 5 ms
[OGL LOG] sort_host_mtx : 3 ms
[OGL LOG] init_preconditioner : 0 ms
[OGL LOG] solve : 54 ms
BJompGKOBiCGStab:  Solving for Uy, Initial residual = 0.155311, Final residual = 0.000149412, No Iterations 12
[OGL LOG] init_host_sparsity_pattern : 8 ms
[OGL LOG] matrix not stored update host matrix
[OGL LOG] update_host_mtx : 3 ms
[OGL LOG] matrix is not yet sorted, sorting host matrix
[OGL LOG] sort_host_mtx_sparsity_pattern : 5 ms
[OGL LOG] sort_host_mtx : 3 ms
[OGL LOG] init_preconditioner : 0 ms
[OGL LOG] solve : 4162 ms
BJompGKOBiCGStab:  Solving for p, Initial residual = 0.218974, Final residual = 0.000215852, No Iterations 967
time step continuity errors : sum local = 6.33267e-05, global = 3.01726e-05, cumulative = 6.02264e-05
smoothSolver:  Solving for nuTilda, Initial residual = 0.097939, Final residual = 0.00485412, No Iterations 4
ExecutionTime = 34 s  ClockTime = 18 s

End

