hash: 43a50dcac9237cb32e47bbae52734aa4
/*---------------------------------------------------------------------------*\
  =========                 |
  \\      /  F ield         | OpenFOAM: The Open Source CFD Toolbox
   \\    /   O peration     | Website:  https://openfoam.org
    \\  /    A nd           | Version:  8
     \\/     M anipulation  |
\*---------------------------------------------------------------------------*/
Build  : 8-ef60d22ea792
Exec   : icoFoam
Date   : Oct 22 2021
Time   : 21:24:19
Host   : "nla-gpu2.ianm.kit.edu"
PID    : 769638
I/O    : uncollated
Case   : /tmp/lidDrivenCavity3D/Variation_init/20/Variation_mesh/50/Variation_matrix_solver/BiCGStab_BJ_HIP/1634930659
nProcs : 1
sigFpe : Enabling floating point exception trapping (FOAM_SIGFPE).
fileModificationChecking : Monitoring run-time modified files using timeStampMaster (fileModificationSkew 10)
allowSystemOperations : Allowing user-supplied system call operations

// * * * * * * * * * * * * * * * * * * * * * * * * * * * * * * * * * * * * * //
Create time

Create mesh for time = 0

Reading transportProperties

Reading field p

Reading field U

Reading/calculating face flux field phi


Starting time loop

Time = 0.002

Courant Number mean: 0 max: 0
DILUPBiCGStab:  Solving for Ux, Initial residual = 1, Final residual = 0.00137768, No Iterations 5
DILUPBiCGStab:  Solving for Uy:  solution singularity
DILUPBiCGStab:  Solving for Uz:  solution singularity
linear solve U 49522
[OGL LOG] init_host_sparsity_pattern : 55992 mu s
[OGL LOG] matrix not stored update host matrix
[OGL LOG] update_host_mtx : 29000 mu s
[OGL LOG] matrix is not yet sorted, compute sorting idxs
[OGL LOG] compute_sort : 1007341 mu s
[OGL LOG] matrix is not yet sorted, sorting host matrix
[OGL LOG] sort_host_mtx_sparsity_pattern : 27261 mu s
[OGL LOG] sort_host_mtx : 15816 mu s
[OGL LOG] create_and_push_b : 489 mu s
[OGL LOG] init_preconditioner : 112605 mu s
[OGL LOG] solve : 237024 mu s
BJhipGKOBiCGStab:  Solving for p, Initial residual = 1, Final residual = 8.13244e-07, No Iterations 584
linear solve p 1938513
time step continuity errors : sum local = 0.0001011, global = 3.55224e-20, cumulative = 3.55224e-20
[OGL LOG] create_and_push_b : 264 mu s
[OGL LOG] init_preconditioner : 8 mu s
[OGL LOG] solve : 119272 mu s
BJhipGKOBiCGStab:  Solving for p, Initial residual = 0.730482, Final residual = 9.96633e-07, No Iterations 553
linear solve p 121019
time step continuity errors : sum local = 4.52994e-09, global = 3.6556e-20, cumulative = 7.20784e-20
ExecutionTime = 2.98 s  ClockTime = 3 s

Time = 0.004

Courant Number mean: 0.0719562 max: 0.72686
DILUPBiCGStab:  Solving for Ux, Initial residual = 0.151507, Final residual = 0.00037845, No Iterations 5
DILUPBiCGStab:  Solving for Uy, Initial residual = 0.353529, Final residual = 0.000772004, No Iterations 5
DILUPBiCGStab:  Solving for Uz, Initial residual = 0.969954, Final residual = 0.00222979, No Iterations 5
linear solve U 92486
[OGL LOG] create_and_push_b : 230 mu s
[OGL LOG] init_preconditioner : 2 mu s
[OGL LOG] solve : 119059 mu s
BJhipGKOBiCGStab:  Solving for p, Initial residual = 0.675837, Final residual = 9.34248e-07, No Iterations 551
linear solve p 120647
time step continuity errors : sum local = 3.74943e-09, global = -4.09729e-20, cumulative = 3.11055e-20
[OGL LOG] create_and_push_b : 228 mu s
[OGL LOG] init_preconditioner : 2 mu s
[OGL LOG] solve : 119170 mu s
BJhipGKOBiCGStab:  Solving for p, Initial residual = 0.599617, Final residual = 2.027e-07, No Iterations 551
linear solve p 120775
time step continuity errors : sum local = 7.27422e-10, global = 2.624e-20, cumulative = 5.73456e-20
ExecutionTime = 3.57 s  ClockTime = 3 s

Time = 0.006

Courant Number mean: 0.107244 max: 0.881413
DILUPBiCGStab:  Solving for Ux, Initial residual = 0.0526801, Final residual = 0.000105023, No Iterations 5
DILUPBiCGStab:  Solving for Uy, Initial residual = 0.117829, Final residual = 0.000233799, No Iterations 5
DILUPBiCGStab:  Solving for Uz, Initial residual = 0.469651, Final residual = 0.000955802, No Iterations 5
linear solve U 91019
[OGL LOG] create_and_push_b : 231 mu s
[OGL LOG] init_preconditioner : 2 mu s
[OGL LOG] solve : 119267 mu s
BJhipGKOBiCGStab:  Solving for p, Initial residual = 0.602846, Final residual = 5.06116e-07, No Iterations 551
linear solve p 120840
time step continuity errors : sum local = 1.33605e-09, global = -1.13853e-20, cumulative = 4.59602e-20
[OGL LOG] create_and_push_b : 238 mu s
[OGL LOG] init_preconditioner : 2 mu s
[OGL LOG] solve : 114599 mu s
BJhipGKOBiCGStab:  Solving for p, Initial residual = 0.552493, Final residual = 5.77137e-07, No Iterations 529
linear solve p 116177
time step continuity errors : sum local = 1.82502e-09, global = 2.34506e-20, cumulative = 6.94108e-20
ExecutionTime = 4.16 s  ClockTime = 3 s

End

================================================================================
hash: 7a5bf5433cc60529604bd9780bcee71b
/*---------------------------------------------------------------------------*\
  =========                 |
  \\      /  F ield         | OpenFOAM: The Open Source CFD Toolbox
   \\    /   O peration     | Website:  https://openfoam.org
    \\  /    A nd           | Version:  8
     \\/     M anipulation  |
\*---------------------------------------------------------------------------*/
Build  : 8-ef60d22ea792
Exec   : icoFoam
Date   : Oct 22 2021
Time   : 21:24:23
Host   : "nla-gpu2.ianm.kit.edu"
PID    : 769647
I/O    : uncollated
Case   : /tmp/lidDrivenCavity3D/Variation_init/20/Variation_mesh/50/Variation_matrix_solver/BiCGStab_ILU_HIP/1634930663
nProcs : 1
sigFpe : Enabling floating point exception trapping (FOAM_SIGFPE).
fileModificationChecking : Monitoring run-time modified files using timeStampMaster (fileModificationSkew 10)
allowSystemOperations : Allowing user-supplied system call operations

// * * * * * * * * * * * * * * * * * * * * * * * * * * * * * * * * * * * * * //
Create time

Create mesh for time = 0

Reading transportProperties

Reading field p

Reading field U

Reading/calculating face flux field phi


Starting time loop

Time = 0.002

Courant Number mean: 0 max: 0
DILUPBiCGStab:  Solving for Ux, Initial residual = 1, Final residual = 0.00137768, No Iterations 5
DILUPBiCGStab:  Solving for Uy:  solution singularity
DILUPBiCGStab:  Solving for Uz:  solution singularity
linear solve U 49287
[OGL LOG] init_host_sparsity_pattern : 55634 mu s
[OGL LOG] matrix not stored update host matrix
[OGL LOG] update_host_mtx : 28996 mu s
[OGL LOG] matrix is not yet sorted, compute sorting idxs
[OGL LOG] compute_sort : 1018905 mu s
[OGL LOG] matrix is not yet sorted, sorting host matrix
[OGL LOG] sort_host_mtx_sparsity_pattern : 26753 mu s
[OGL LOG] sort_host_mtx : 15279 mu s
[OGL LOG] create_and_push_b : 242 mu s
[OGL LOG] init_preconditioner : 27792 mu s
[OGL LOG] solve : 257691 mu s
ILUhipGKOBiCGStab:  Solving for p, Initial residual = 1, Final residual = 4.09746e-07, No Iterations 210
linear solve p 1885017
time step continuity errors : sum local = 0.000461478, global = -2.3511e-19, cumulative = -2.3511e-19
[OGL LOG] create_and_push_b : 228 mu s
[OGL LOG] init_preconditioner : 8 mu s
[OGL LOG] solve : 177706 mu s
ILUhipGKOBiCGStab:  Solving for p, Initial residual = 0.764489, Final residual = 3.60793e-07, No Iterations 201
linear solve p 179308
time step continuity errors : sum local = 1.62352e-09, global = -6.03507e-21, cumulative = -2.41145e-19
ExecutionTime = 3.01 s  ClockTime = 2 s

Time = 0.004

Courant Number mean: 0.0719566 max: 0.726878
DILUPBiCGStab:  Solving for Ux, Initial residual = 0.151513, Final residual = 0.000378468, No Iterations 5
DILUPBiCGStab:  Solving for Uy, Initial residual = 0.353926, Final residual = 0.00077225, No Iterations 5
DILUPBiCGStab:  Solving for Uz, Initial residual = 0.91936, Final residual = 0.00182584, No Iterations 5
linear solve U 96792
[OGL LOG] create_and_push_b : 226 mu s
[OGL LOG] init_preconditioner : 2 mu s
[OGL LOG] solve : 178153 mu s
ILUhipGKOBiCGStab:  Solving for p, Initial residual = 0.707329, Final residual = 2.66904e-07, No Iterations 201
linear solve p 179687
time step continuity errors : sum local = 1.30944e-09, global = 4.86764e-20, cumulative = -1.92468e-19
[OGL LOG] create_and_push_b : 220 mu s
[OGL LOG] init_preconditioner : 1 mu s
[OGL LOG] solve : 177968 mu s
ILUhipGKOBiCGStab:  Solving for p, Initial residual = 0.619978, Final residual = 4.20374e-07, No Iterations 201
linear solve p 179492
time step continuity errors : sum local = 1.77771e-09, global = 2.56682e-20, cumulative = -1.668e-19
ExecutionTime = 3.78 s  ClockTime = 3 s

Time = 0.006

Courant Number mean: 0.107253 max: 0.881606
DILUPBiCGStab:  Solving for Ux, Initial residual = 0.0526798, Final residual = 0.00010501, No Iterations 5
DILUPBiCGStab:  Solving for Uy, Initial residual = 0.118015, Final residual = 0.000233898, No Iterations 5
DILUPBiCGStab:  Solving for Uz, Initial residual = 0.547954, Final residual = 0.000787631, No Iterations 5
linear solve U 95126
[OGL LOG] create_and_push_b : 236 mu s
[OGL LOG] init_preconditioner : 1 mu s
[OGL LOG] solve : 142492 mu s
ILUhipGKOBiCGStab:  Solving for p, Initial residual = 0.632677, Final residual = 3.12171e-07, No Iterations 161
linear solve p 143981
time step continuity errors : sum local = 1.1401e-09, global = -5.8965e-20, cumulative = -2.25765e-19
[OGL LOG] create_and_push_b : 226 mu s
[OGL LOG] init_preconditioner : 2 mu s
[OGL LOG] solve : 117917 mu s
ILUhipGKOBiCGStab:  Solving for p, Initial residual = 0.570829, Final residual = 8.17068e-07, No Iterations 133
linear solve p 119306
time step continuity errors : sum local = 2.85674e-09, global = 1.46148e-20, cumulative = -2.1115e-19
ExecutionTime = 4.39 s  ClockTime = 3 s

End

================================================================================
hash: 58da947a0a5b48923c69f06ded6a73a7
/*---------------------------------------------------------------------------*\
  =========                 |
  \\      /  F ield         | OpenFOAM: The Open Source CFD Toolbox
   \\    /   O peration     | Website:  https://openfoam.org
    \\  /    A nd           | Version:  8
     \\/     M anipulation  |
\*---------------------------------------------------------------------------*/
Build  : 8-ef60d22ea792
Exec   : icoFoam
Date   : Oct 22 2021
Time   : 21:24:27
Host   : "nla-gpu2.ianm.kit.edu"
PID    : 769684
I/O    : uncollated
Case   : /tmp/lidDrivenCavity3D/Variation_init/20/Variation_mesh/50/Variation_matrix_solver/CG_NoPrecond_HIP/1634930667
nProcs : 1
sigFpe : Enabling floating point exception trapping (FOAM_SIGFPE).
fileModificationChecking : Monitoring run-time modified files using timeStampMaster (fileModificationSkew 10)
allowSystemOperations : Allowing user-supplied system call operations

// * * * * * * * * * * * * * * * * * * * * * * * * * * * * * * * * * * * * * //
Create time

Create mesh for time = 0

Reading transportProperties

Reading field p

Reading field U

Reading/calculating face flux field phi


Starting time loop

Time = 0.002

Courant Number mean: 0 max: 0
DILUPBiCGStab:  Solving for Ux, Initial residual = 1, Final residual = 0.00137768, No Iterations 5
DILUPBiCGStab:  Solving for Uy:  solution singularity
DILUPBiCGStab:  Solving for Uz:  solution singularity
linear solve U 49349
[OGL LOG] init_host_sparsity_pattern : 56238 mu s
[OGL LOG] matrix not stored update host matrix
[OGL LOG] update_host_mtx : 29002 mu s
[OGL LOG] matrix is not yet sorted, compute sorting idxs
[OGL LOG] compute_sort : 1053300 mu s
[OGL LOG] matrix is not yet sorted, sorting host matrix
[OGL LOG] sort_host_mtx_sparsity_pattern : 31338 mu s
[OGL LOG] sort_host_mtx : 16507 mu s
[OGL LOG] create_and_push_b : 324 mu s
[OGL LOG] init_preconditioner : 6 mu s
[OGL LOG] solve : 180220 mu s
nonehipGKOCG:  Solving for p, Initial residual = 1, Final residual = 9.34501e-07, No Iterations 445
linear solve p 1820034
time step continuity errors : sum local = 1.52802e-09, global = -1.60804e-20, cumulative = -1.60804e-20
[OGL LOG] create_and_push_b : 255 mu s
[OGL LOG] init_preconditioner : 3 mu s
[OGL LOG] solve : 90532 mu s
nonehipGKOCG:  Solving for p, Initial residual = 0.720827, Final residual = 6.85346e-07, No Iterations 443
linear solve p 92223
time step continuity errors : sum local = 1.48831e-09, global = -9.75401e-21, cumulative = -2.58344e-20
ExecutionTime = 2.76 s  ClockTime = 2 s

Time = 0.004

Courant Number mean: 0.0719561 max: 0.726858
DILUPBiCGStab:  Solving for Ux, Initial residual = 0.151509, Final residual = 0.000378451, No Iterations 5
DILUPBiCGStab:  Solving for Uy, Initial residual = 0.353517, Final residual = 0.000771986, No Iterations 5
DILUPBiCGStab:  Solving for Uz, Initial residual = 0.977801, Final residual = 0.00234625, No Iterations 5
linear solve U 94765
[OGL LOG] create_and_push_b : 240 mu s
[OGL LOG] init_preconditioner : 3 mu s
[OGL LOG] solve : 90426 mu s
nonehipGKOCG:  Solving for p, Initial residual = 0.673633, Final residual = 4.18481e-07, No Iterations 443
linear solve p 91972
time step continuity errors : sum local = 9.93264e-10, global = -3.59992e-20, cumulative = -6.18336e-20
[OGL LOG] create_and_push_b : 225 mu s
[OGL LOG] init_preconditioner : 4 mu s
[OGL LOG] solve : 90470 mu s
nonehipGKOCG:  Solving for p, Initial residual = 0.598651, Final residual = 3.64617e-07, No Iterations 443
linear solve p 92012
time step continuity errors : sum local = 8.88391e-10, global = 4.54422e-20, cumulative = -1.63915e-20
ExecutionTime = 3.24 s  ClockTime = 3 s

Time = 0.006

Courant Number mean: 0.107243 max: 0.881423
DILUPBiCGStab:  Solving for Ux, Initial residual = 0.0526817, Final residual = 0.000105024, No Iterations 5
DILUPBiCGStab:  Solving for Uy, Initial residual = 0.117813, Final residual = 0.000233764, No Iterations 5
DILUPBiCGStab:  Solving for Uz, Initial residual = 0.455911, Final residual = 0.000979451, No Iterations 5
linear solve U 93199
[OGL LOG] create_and_push_b : 230 mu s
[OGL LOG] init_preconditioner : 3 mu s
[OGL LOG] solve : 90520 mu s
nonehipGKOCG:  Solving for p, Initial residual = 0.600737, Final residual = 3.66725e-07, No Iterations 443
linear solve p 92045
time step continuity errors : sum local = 6.11529e-10, global = 2.47569e-20, cumulative = 8.36541e-21
[OGL LOG] create_and_push_b : 235 mu s
[OGL LOG] init_preconditioner : 3 mu s
[OGL LOG] solve : 90465 mu s
nonehipGKOCG:  Solving for p, Initial residual = 0.551473, Final residual = 3.04727e-07, No Iterations 443
linear solve p 91991
time step continuity errors : sum local = 4.90727e-10, global = -5.42164e-21, cumulative = 2.94377e-21
ExecutionTime = 3.72 s  ClockTime = 3 s

End

================================================================================
hash: 36e7f8a11462190fadc39f022dbf733a
/*---------------------------------------------------------------------------*\
  =========                 |
  \\      /  F ield         | OpenFOAM: The Open Source CFD Toolbox
   \\    /   O peration     | Website:  https://openfoam.org
    \\  /    A nd           | Version:  8
     \\/     M anipulation  |
\*---------------------------------------------------------------------------*/
Build  : 8-ef60d22ea792
Exec   : icoFoam
Date   : Oct 22 2021
Time   : 21:24:48
Host   : "nla-gpu2.ianm.kit.edu"
PID    : 770019
I/O    : uncollated
Case   : /tmp/lidDrivenCavity3D/Variation_init/20/Variation_mesh/50/Variation_matrix_solver/CG_ILU_HIP/1634930688
nProcs : 1
sigFpe : Enabling floating point exception trapping (FOAM_SIGFPE).
fileModificationChecking : Monitoring run-time modified files using timeStampMaster (fileModificationSkew 10)
allowSystemOperations : Allowing user-supplied system call operations

// * * * * * * * * * * * * * * * * * * * * * * * * * * * * * * * * * * * * * //
Create time

Create mesh for time = 0

Reading transportProperties

Reading field p

Reading field U

Reading/calculating face flux field phi


Starting time loop

Time = 0.002

Courant Number mean: 0 max: 0
DILUPBiCGStab:  Solving for Ux, Initial residual = 1, Final residual = 0.00137768, No Iterations 5
DILUPBiCGStab:  Solving for Uy:  solution singularity
DILUPBiCGStab:  Solving for Uz:  solution singularity
linear solve U 52457
[OGL LOG] init_host_sparsity_pattern : 58752 mu s
[OGL LOG] matrix not stored update host matrix
[OGL LOG] update_host_mtx : 29154 mu s
[OGL LOG] matrix is not yet sorted, compute sorting idxs
[OGL LOG] compute_sort : 1011823 mu s
[OGL LOG] matrix is not yet sorted, sorting host matrix
[OGL LOG] sort_host_mtx_sparsity_pattern : 26949 mu s
[OGL LOG] sort_host_mtx : 15863 mu s
[OGL LOG] create_and_push_b : 309 mu s
[OGL LOG] init_preconditioner : 28248 mu s
[OGL LOG] solve : 188685 mu s
ILUhipGKOCG:  Solving for p, Initial residual = 1, Final residual = 8.55748e-07, No Iterations 140
linear solve p 1813075
time step continuity errors : sum local = 1.39915e-09, global = -2.01353e-20, cumulative = -2.01353e-20
[OGL LOG] create_and_push_b : 261 mu s
[OGL LOG] init_preconditioner : 9 mu s
[OGL LOG] solve : 125332 mu s
ILUhipGKOCG:  Solving for p, Initial residual = 0.720827, Final residual = 3.50514e-07, No Iterations 141
linear solve p 127063
time step continuity errors : sum local = 7.61196e-10, global = -1.5739e-20, cumulative = -3.58744e-20
ExecutionTime = 2.82 s  ClockTime = 2 s

Time = 0.004

Courant Number mean: 0.0719561 max: 0.726858
DILUPBiCGStab:  Solving for Ux, Initial residual = 0.151509, Final residual = 0.000378451, No Iterations 5
DILUPBiCGStab:  Solving for Uy, Initial residual = 0.353517, Final residual = 0.000771986, No Iterations 5
DILUPBiCGStab:  Solving for Uz, Initial residual = 0.977801, Final residual = 0.00234625, No Iterations 5
linear solve U 94792
[OGL LOG] create_and_push_b : 244 mu s
[OGL LOG] init_preconditioner : 2 mu s
[OGL LOG] solve : 120765 mu s
ILUhipGKOCG:  Solving for p, Initial residual = 0.673634, Final residual = 8.83619e-07, No Iterations 136
linear solve p 122333
time step continuity errors : sum local = 2.09691e-09, global = -2.30594e-20, cumulative = -5.89337e-20
[OGL LOG] create_and_push_b : 244 mu s
[OGL LOG] init_preconditioner : 2 mu s
[OGL LOG] solve : 120922 mu s
ILUhipGKOCG:  Solving for p, Initial residual = 0.598651, Final residual = 7.40057e-07, No Iterations 136
linear solve p 122442
time step continuity errors : sum local = 1.803e-09, global = 2.78952e-21, cumulative = -5.61442e-20
ExecutionTime = 3.4 s  ClockTime = 3 s

Time = 0.006

Courant Number mean: 0.107243 max: 0.881423
DILUPBiCGStab:  Solving for Ux, Initial residual = 0.0526817, Final residual = 0.000105024, No Iterations 5
DILUPBiCGStab:  Solving for Uy, Initial residual = 0.117813, Final residual = 0.000233764, No Iterations 5
DILUPBiCGStab:  Solving for Uz, Initial residual = 0.455907, Final residual = 0.000979415, No Iterations 5
linear solve U 93399
[OGL LOG] create_and_push_b : 248 mu s
[OGL LOG] init_preconditioner : 2 mu s
[OGL LOG] solve : 120983 mu s
ILUhipGKOCG:  Solving for p, Initial residual = 0.600736, Final residual = 7.16916e-07, No Iterations 136
linear solve p 122521
time step continuity errors : sum local = 1.19544e-09, global = -4.90539e-20, cumulative = -1.05198e-19
[OGL LOG] create_and_push_b : 241 mu s
[OGL LOG] init_preconditioner : 2 mu s
[OGL LOG] solve : 121078 mu s
ILUhipGKOCG:  Solving for p, Initial residual = 0.551472, Final residual = 6.59271e-07, No Iterations 136
linear solve p 122605
time step continuity errors : sum local = 1.06178e-09, global = -3.81598e-20, cumulative = -1.43358e-19
ExecutionTime = 3.98 s  ClockTime = 3 s

End

================================================================================
hash: 8d78cf3890e972e239aa5f32d249a890
/*---------------------------------------------------------------------------*\
  =========                 |
  \\      /  F ield         | OpenFOAM: The Open Source CFD Toolbox
   \\    /   O peration     | Website:  https://openfoam.org
    \\  /    A nd           | Version:  8
     \\/     M anipulation  |
\*---------------------------------------------------------------------------*/
Build  : 8-ef60d22ea792
Exec   : icoFoam
Date   : Oct 22 2021
Time   : 21:24:51
Host   : "nla-gpu2.ianm.kit.edu"
PID    : 770030
I/O    : uncollated
Case   : /tmp/lidDrivenCavity3D/Variation_init/20/Variation_mesh/50/Variation_matrix_solver/BiCGStab_NoPrecond_HIP/1634930691
nProcs : 1
sigFpe : Enabling floating point exception trapping (FOAM_SIGFPE).
fileModificationChecking : Monitoring run-time modified files using timeStampMaster (fileModificationSkew 10)
allowSystemOperations : Allowing user-supplied system call operations

// * * * * * * * * * * * * * * * * * * * * * * * * * * * * * * * * * * * * * //
Create time

Create mesh for time = 0

Reading transportProperties

Reading field p

Reading field U

Reading/calculating face flux field phi


Starting time loop

Time = 0.002

Courant Number mean: 0 max: 0
DILUPBiCGStab:  Solving for Ux, Initial residual = 1, Final residual = 0.00137768, No Iterations 5
DILUPBiCGStab:  Solving for Uy:  solution singularity
DILUPBiCGStab:  Solving for Uz:  solution singularity
linear solve U 48928
[OGL LOG] init_host_sparsity_pattern : 56685 mu s
[OGL LOG] matrix not stored update host matrix
[OGL LOG] update_host_mtx : 29248 mu s
[OGL LOG] matrix is not yet sorted, compute sorting idxs
[OGL LOG] compute_sort : 1006764 mu s
[OGL LOG] matrix is not yet sorted, sorting host matrix
[OGL LOG] sort_host_mtx_sparsity_pattern : 26304 mu s
[OGL LOG] sort_host_mtx : 15588 mu s
[OGL LOG] create_and_push_b : 485 mu s
[OGL LOG] init_preconditioner : 7 mu s
[OGL LOG] solve : 278518 mu s
nonehipGKOBiCGStab:  Solving for p, Initial residual = 1, Final residual = 7.71557e-07, No Iterations 722
linear solve p 1864156
time step continuity errors : sum local = 1.91034e-05, global = 5.45277e-21, cumulative = 5.45277e-21
[OGL LOG] create_and_push_b : 238 mu s
[OGL LOG] init_preconditioner : 3 mu s
[OGL LOG] solve : 139106 mu s
nonehipGKOBiCGStab:  Solving for p, Initial residual = 0.722261, Final residual = 8.81382e-07, No Iterations 701
linear solve p 140951
time step continuity errors : sum local = 3.8603e-09, global = -5.12634e-21, cumulative = 3.26439e-22
ExecutionTime = 2.98 s  ClockTime = 3 s

Time = 0.004

Courant Number mean: 0.0719561 max: 0.726858
DILUPBiCGStab:  Solving for Ux, Initial residual = 0.15151, Final residual = 0.000378451, No Iterations 5
DILUPBiCGStab:  Solving for Uy, Initial residual = 0.353519, Final residual = 0.000771989, No Iterations 5
DILUPBiCGStab:  Solving for Uz, Initial residual = 0.976383, Final residual = 0.00233093, No Iterations 5
linear solve U 95551
[OGL LOG] create_and_push_b : 230 mu s
[OGL LOG] init_preconditioner : 3 mu s
[OGL LOG] solve : 150799 mu s
nonehipGKOBiCGStab:  Solving for p, Initial residual = 0.673876, Final residual = 7.12788e-07, No Iterations 757
linear solve p 152521
time step continuity errors : sum local = 3.38999e-09, global = 1.26607e-20, cumulative = 1.29872e-20
[OGL LOG] create_and_push_b : 223 mu s
[OGL LOG] init_preconditioner : 3 mu s
[OGL LOG] solve : 137300 mu s
nonehipGKOBiCGStab:  Solving for p, Initial residual = 0.598779, Final residual = 8.29982e-07, No Iterations 691
linear solve p 139001
time step continuity errors : sum local = 4.04991e-09, global = -1.5412e-20, cumulative = -2.42478e-21
ExecutionTime = 3.67 s  ClockTime = 4 s

Time = 0.006

Courant Number mean: 0.107243 max: 0.88144
DILUPBiCGStab:  Solving for Ux, Initial residual = 0.0526791, Final residual = 0.000105009, No Iterations 5
DILUPBiCGStab:  Solving for Uy, Initial residual = 0.11782, Final residual = 0.000233775, No Iterations 5
DILUPBiCGStab:  Solving for Uz, Initial residual = 0.458252, Final residual = 0.000976967, No Iterations 5
linear solve U 91509
[OGL LOG] create_and_push_b : 229 mu s
[OGL LOG] init_preconditioner : 3 mu s
[OGL LOG] solve : 150716 mu s
nonehipGKOBiCGStab:  Solving for p, Initial residual = 0.600951, Final residual = 6.28187e-07, No Iterations 757
linear solve p 152451
time step continuity errors : sum local = 2.097e-09, global = -3.66316e-21, cumulative = -6.08794e-21
[OGL LOG] create_and_push_b : 239 mu s
[OGL LOG] init_preconditioner : 3 mu s
[OGL LOG] solve : 161338 mu s
nonehipGKOBiCGStab:  Solving for p, Initial residual = 0.551578, Final residual = 2.2537e-07, No Iterations 811
linear solve p 163102
time step continuity errors : sum local = 7.26388e-10, global = 1.17288e-20, cumulative = 5.6409e-21
ExecutionTime = 4.39 s  ClockTime = 4 s

End

================================================================================
hash: ef75597ee1d4134310018b7a1a11657a
/*---------------------------------------------------------------------------*\
  =========                 |
  \\      /  F ield         | OpenFOAM: The Open Source CFD Toolbox
   \\    /   O peration     | Website:  https://openfoam.org
    \\  /    A nd           | Version:  8
     \\/     M anipulation  |
\*---------------------------------------------------------------------------*/
Build  : 8-ef60d22ea792
Exec   : icoFoam
Date   : Oct 22 2021
Time   : 21:24:55
Host   : "nla-gpu2.ianm.kit.edu"
PID    : 770109
I/O    : uncollated
Case   : /tmp/lidDrivenCavity3D/Variation_init/20/Variation_mesh/100/Variation_matrix_solver/CG_NoPrecond_HIP/1634930695
nProcs : 1
sigFpe : Enabling floating point exception trapping (FOAM_SIGFPE).
fileModificationChecking : Monitoring run-time modified files using timeStampMaster (fileModificationSkew 10)
allowSystemOperations : Allowing user-supplied system call operations

// * * * * * * * * * * * * * * * * * * * * * * * * * * * * * * * * * * * * * //
Create time

Create mesh for time = 0

Reading transportProperties

Reading field p

Reading field U

Reading/calculating face flux field phi


Starting time loop

Time = 0.001

Courant Number mean: 0 max: 0
DILUPBiCGStab:  Solving for Ux, Initial residual = 1, Final residual = 0.00717233, No Iterations 5
DILUPBiCGStab:  Solving for Uy:  solution singularity
DILUPBiCGStab:  Solving for Uz:  solution singularity
linear solve U 425109
[OGL LOG] init_host_sparsity_pattern : 453935 mu s
[OGL LOG] matrix not stored update host matrix
[OGL LOG] update_host_mtx : 231440 mu s
[OGL LOG] matrix is not yet sorted, compute sorting idxs
[OGL LOG] compute_sort : 8665881 mu s
[OGL LOG] matrix is not yet sorted, sorting host matrix
[OGL LOG] sort_host_mtx_sparsity_pattern : 220902 mu s
[OGL LOG] sort_host_mtx : 133644 mu s
[OGL LOG] create_and_push_b : 2049 mu s
[OGL LOG] init_preconditioner : 11 mu s
[OGL LOG] solve : 884558 mu s
nonehipGKOCG:  Solving for p, Initial residual = 1, Final residual = 9.9357e-07, No Iterations 901
linear solve p 11099914
time step continuity errors : sum local = 5.69126e-10, global = 1.18552e-20, cumulative = 1.18552e-20
[OGL LOG] create_and_push_b : 2184 mu s
[OGL LOG] init_preconditioner : 4 mu s
[OGL LOG] solve : 617915 mu s
nonehipGKOCG:  Solving for p, Initial residual = 0.777316, Final residual = 6.7232e-07, No Iterations 901
linear solve p 628931
time step continuity errors : sum local = 4.85896e-10, global = 3.84831e-22, cumulative = 1.224e-20
ExecutionTime = 17.87 s  ClockTime = 17 s

Time = 0.002

Courant Number mean: 0.0560717 max: 0.805494
DILUPBiCGStab:  Solving for Ux, Initial residual = 0.138282, Final residual = 0.00319034, No Iterations 5
DILUPBiCGStab:  Solving for Uy, Initial residual = 0.430538, Final residual = 0.00909566, No Iterations 5
DILUPBiCGStab:  Solving for Uz, Initial residual = 0.9903, Final residual = 0.0225854, No Iterations 5
linear solve U 811891
[OGL LOG] create_and_push_b : 2188 mu s
[OGL LOG] init_preconditioner : 5 mu s
[OGL LOG] solve : 616939 mu s
nonehipGKOCG:  Solving for p, Initial residual = 0.799783, Final residual = 4.48336e-07, No Iterations 901
linear solve p 627267
time step continuity errors : sum local = 4.58711e-10, global = 4.86952e-21, cumulative = 1.71095e-20
[OGL LOG] create_and_push_b : 1988 mu s
[OGL LOG] init_preconditioner : 4 mu s
[OGL LOG] solve : 636937 mu s
nonehipGKOCG:  Solving for p, Initial residual = 0.740737, Final residual = 3.76515e-07, No Iterations 901
linear solve p 647225
time step continuity errors : sum local = 3.93202e-10, global = 1.04422e-20, cumulative = 2.75517e-20
ExecutionTime = 21.35 s  ClockTime = 20 s

Time = 0.003

Courant Number mean: 0.0852773 max: 0.943633
DILUPBiCGStab:  Solving for Ux, Initial residual = 0.0649257, Final residual = 0.00112815, No Iterations 5
DILUPBiCGStab:  Solving for Uy, Initial residual = 0.225975, Final residual = 0.00296595, No Iterations 5
DILUPBiCGStab:  Solving for Uz, Initial residual = 0.792327, Final residual = 0.0162193, No Iterations 5
linear solve U 817804
[OGL LOG] create_and_push_b : 2087 mu s
[OGL LOG] init_preconditioner : 4 mu s
[OGL LOG] solve : 616971 mu s
nonehipGKOCG:  Solving for p, Initial residual = 0.832938, Final residual = 3.97749e-07, No Iterations 901
linear solve p 627379
time step continuity errors : sum local = 3.82607e-10, global = -7.39926e-21, cumulative = 2.01525e-20
[OGL LOG] create_and_push_b : 2129 mu s
[OGL LOG] init_preconditioner : 4 mu s
[OGL LOG] solve : 619677 mu s
nonehipGKOCG:  Solving for p, Initial residual = 0.802223, Final residual = 3.60187e-07, No Iterations 901
linear solve p 629906
time step continuity errors : sum local = 3.37955e-10, global = -1.16966e-20, cumulative = 8.45586e-21
ExecutionTime = 24.82 s  ClockTime = 22 s

End

================================================================================
hash: d6e5242cc5147df9dc0e7c5fc3778651
/*---------------------------------------------------------------------------*\
  =========                 |
  \\      /  F ield         | OpenFOAM: The Open Source CFD Toolbox
   \\    /   O peration     | Website:  https://openfoam.org
    \\  /    A nd           | Version:  8
     \\/     M anipulation  |
\*---------------------------------------------------------------------------*/
Build  : 8-ef60d22ea792
Exec   : icoFoam
Date   : Oct 22 2021
Time   : 21:25:26
Host   : "nla-gpu2.ianm.kit.edu"
PID    : 771108
I/O    : uncollated
Case   : /tmp/lidDrivenCavity3D/Variation_init/20/Variation_mesh/50/Variation_matrix_solver/BiCGStab_BJ_HIP/1634930726
nProcs : 1
sigFpe : Enabling floating point exception trapping (FOAM_SIGFPE).
fileModificationChecking : Monitoring run-time modified files using timeStampMaster (fileModificationSkew 10)
allowSystemOperations : Allowing user-supplied system call operations

// * * * * * * * * * * * * * * * * * * * * * * * * * * * * * * * * * * * * * //
Create time

Create mesh for time = 0

Reading transportProperties

Reading field p

Reading field U

Reading/calculating face flux field phi


Starting time loop

Time = 0.002

Courant Number mean: 0 max: 0
DILUPBiCGStab:  Solving for Ux, Initial residual = 1, Final residual = 0.00137768, No Iterations 5
DILUPBiCGStab:  Solving for Uy:  solution singularity
DILUPBiCGStab:  Solving for Uz:  solution singularity
linear solve U 49191
[OGL LOG] init_host_sparsity_pattern : 58169 mu s
[OGL LOG] matrix not stored update host matrix
[OGL LOG] update_host_mtx : 28759 mu s
[OGL LOG] matrix is not yet sorted, compute sorting idxs
[OGL LOG] compute_sort : 985850 mu s
[OGL LOG] matrix is not yet sorted, sorting host matrix
[OGL LOG] sort_host_mtx_sparsity_pattern : 23959 mu s
[OGL LOG] sort_host_mtx : 14552 mu s
[OGL LOG] create_and_push_b : 588 mu s
[OGL LOG] init_preconditioner : 107404 mu s
[OGL LOG] solve : 255024 mu s
BJhipGKOBiCGStab:  Solving for p, Initial residual = 1, Final residual = 8.13244e-07, No Iterations 584
linear solve p 1926253
time step continuity errors : sum local = 0.000184985, global = 2.49345e-20, cumulative = 2.49345e-20
[OGL LOG] create_and_push_b : 272 mu s
[OGL LOG] init_preconditioner : 6 mu s
[OGL LOG] solve : 133929 mu s
BJhipGKOBiCGStab:  Solving for p, Initial residual = 0.739436, Final residual = 2.82488e-07, No Iterations 576
linear solve p 135679
time step continuity errors : sum local = 0.000410089, global = -4.32078e-21, cumulative = 2.06138e-20
ExecutionTime = 2.99 s  ClockTime = 2 s

Time = 0.004

Courant Number mean: 0.0720654 max: 0.727181
DILUPBiCGStab:  Solving for Ux, Initial residual = 0.151506, Final residual = 0.00037844, No Iterations 5
DILUPBiCGStab:  Solving for Uy, Initial residual = 0.353623, Final residual = 0.000771906, No Iterations 5
DILUPBiCGStab:  Solving for Uz, Initial residual = 0.730215, Final residual = 0.0013474, No Iterations 5
linear solve U 93420
[OGL LOG] create_and_push_b : 270 mu s
[OGL LOG] init_preconditioner : 1 mu s
[OGL LOG] solve : 128891 mu s
BJhipGKOBiCGStab:  Solving for p, Initial residual = 0.715582, Final residual = 2.60871e-07, No Iterations 553
linear solve p 130510
time step continuity errors : sum local = 4.0352e-08, global = 2.81464e-20, cumulative = 4.87602e-20
[OGL LOG] create_and_push_b : 264 mu s
[OGL LOG] init_preconditioner : 1 mu s
[OGL LOG] solve : 123245 mu s
BJhipGKOBiCGStab:  Solving for p, Initial residual = 0.613487, Final residual = 8.11607e-07, No Iterations 529
linear solve p 124834
time step continuity errors : sum local = 7.61173e-09, global = -9.92062e-21, cumulative = 3.88395e-20
ExecutionTime = 3.62 s  ClockTime = 3 s

Time = 0.006

Courant Number mean: 0.107253 max: 0.881637
DILUPBiCGStab:  Solving for Ux, Initial residual = 0.0526785, Final residual = 0.000105002, No Iterations 5
DILUPBiCGStab:  Solving for Uy, Initial residual = 0.118163, Final residual = 0.000234138, No Iterations 5
DILUPBiCGStab:  Solving for Uz, Initial residual = 0.573202, Final residual = 0.000773362, No Iterations 5
linear solve U 93042
[OGL LOG] create_and_push_b : 270 mu s
[OGL LOG] init_preconditioner : 1 mu s
[OGL LOG] solve : 102825 mu s
BJhipGKOBiCGStab:  Solving for p, Initial residual = 0.635014, Final residual = 1.53793e-07, No Iterations 442
linear solve p 104356
time step continuity errors : sum local = 7.27707e-09, global = -2.88855e-20, cumulative = 9.95404e-21
[OGL LOG] create_and_push_b : 268 mu s
[OGL LOG] init_preconditioner : 1 mu s
[OGL LOG] solve : 83542 mu s
BJhipGKOBiCGStab:  Solving for p, Initial residual = 0.57205, Final residual = 4.86084e-07, No Iterations 358
linear solve p 85053
time step continuity errors : sum local = 1.03414e-08, global = -3.287e-20, cumulative = -2.29159e-20
ExecutionTime = 4.12 s  ClockTime = 3 s

End

================================================================================
hash: 54beae77f4ae34e81377f0042ec34802
/*---------------------------------------------------------------------------*\
  =========                 |
  \\      /  F ield         | OpenFOAM: The Open Source CFD Toolbox
   \\    /   O peration     | Website:  https://openfoam.org
    \\  /    A nd           | Version:  8
     \\/     M anipulation  |
\*---------------------------------------------------------------------------*/
Build  : 8-ef60d22ea792
Exec   : icoFoam
Date   : Oct 22 2021
Time   : 21:25:29
Host   : "nla-gpu2.ianm.kit.edu"
PID    : 771146
I/O    : uncollated
Case   : /tmp/lidDrivenCavity3D/Variation_init/20/Variation_mesh/50/Variation_matrix_solver/BiCGStab_ILU_HIP/1634930729
nProcs : 1
sigFpe : Enabling floating point exception trapping (FOAM_SIGFPE).
fileModificationChecking : Monitoring run-time modified files using timeStampMaster (fileModificationSkew 10)
allowSystemOperations : Allowing user-supplied system call operations

// * * * * * * * * * * * * * * * * * * * * * * * * * * * * * * * * * * * * * //
Create time

Create mesh for time = 0

Reading transportProperties

Reading field p

Reading field U

Reading/calculating face flux field phi


Starting time loop

Time = 0.002

Courant Number mean: 0 max: 0
DILUPBiCGStab:  Solving for Ux, Initial residual = 1, Final residual = 0.00137768, No Iterations 5
DILUPBiCGStab:  Solving for Uy:  solution singularity
DILUPBiCGStab:  Solving for Uz:  solution singularity
linear solve U 48626
[OGL LOG] init_host_sparsity_pattern : 56048 mu s
[OGL LOG] matrix not stored update host matrix
[OGL LOG] update_host_mtx : 29005 mu s
[OGL LOG] matrix is not yet sorted, compute sorting idxs
[OGL LOG] compute_sort : 1010190 mu s
[OGL LOG] matrix is not yet sorted, sorting host matrix
[OGL LOG] sort_host_mtx_sparsity_pattern : 27051 mu s
[OGL LOG] sort_host_mtx : 15737 mu s
[OGL LOG] create_and_push_b : 593 mu s
[OGL LOG] init_preconditioner : 30770 mu s
[OGL LOG] solve : 263800 mu s
ILUhipGKOBiCGStab:  Solving for p, Initial residual = 1, Final residual = 4.09746e-07, No Iterations 210
linear solve p 1878298
time step continuity errors : sum local = 0.00141134, global = -4.9583e-19, cumulative = -4.9583e-19
[OGL LOG] create_and_push_b : 285 mu s
[OGL LOG] init_preconditioner : 6 mu s
[OGL LOG] solve : 182642 mu s
ILUhipGKOBiCGStab:  Solving for p, Initial residual = 0.829501, Final residual = 4.07382e-07, No Iterations 201
linear solve p 184301
time step continuity errors : sum local = 3.00808e-09, global = 3.04122e-21, cumulative = -4.92789e-19
ExecutionTime = 3.02 s  ClockTime = 3 s

Time = 0.004

Courant Number mean: 0.0719582 max: 0.726883
DILUPBiCGStab:  Solving for Ux, Initial residual = 0.15152, Final residual = 0.000378455, No Iterations 5
DILUPBiCGStab:  Solving for Uy, Initial residual = 0.354886, Final residual = 0.000773897, No Iterations 5
DILUPBiCGStab:  Solving for Uz, Initial residual = 0.896415, Final residual = 0.00119719, No Iterations 5
linear solve U 94660
[OGL LOG] create_and_push_b : 273 mu s
[OGL LOG] init_preconditioner : 1 mu s
[OGL LOG] solve : 182795 mu s
ILUhipGKOBiCGStab:  Solving for p, Initial residual = 0.745973, Final residual = 9.55567e-07, No Iterations 201
linear solve p 184283
time step continuity errors : sum local = 6.21827e-09, global = -5.27702e-21, cumulative = -4.98066e-19
[OGL LOG] create_and_push_b : 267 mu s
[OGL LOG] init_preconditioner : 1 mu s
[OGL LOG] solve : 190210 mu s
ILUhipGKOBiCGStab:  Solving for p, Initial residual = 0.649763, Final residual = 1.5169e-07, No Iterations 209
linear solve p 191694
time step continuity errors : sum local = 9.66482e-10, global = 2.59807e-20, cumulative = -4.72085e-19
ExecutionTime = 3.83 s  ClockTime = 4 s

Time = 0.006

Courant Number mean: 0.107284 max: 0.881994
DILUPBiCGStab:  Solving for Ux, Initial residual = 0.0526824, Final residual = 0.000105014, No Iterations 5
DILUPBiCGStab:  Solving for Uy, Initial residual = 0.119058, Final residual = 0.00023455, No Iterations 5
DILUPBiCGStab:  Solving for Uz, Initial residual = 0.637068, Final residual = 0.000612991, No Iterations 5
linear solve U 93660
[OGL LOG] create_and_push_b : 266 mu s
[OGL LOG] init_preconditioner : 1 mu s
[OGL LOG] solve : 221354 mu s
ILUhipGKOBiCGStab:  Solving for p, Initial residual = 0.678491, Final residual = 2.72925e-07, No Iterations 225
linear solve p 222835
time step continuity errors : sum local = 1.14464e-09, global = 2.15841e-20, cumulative = -4.50501e-19
[OGL LOG] create_and_push_b : 269 mu s
[OGL LOG] init_preconditioner : 1 mu s
[OGL LOG] solve : 242759 mu s
ILUhipGKOBiCGStab:  Solving for p, Initial residual = 0.601954, Final residual = 1.12419e-07, No Iterations 217
linear solve p 244258
time step continuity errors : sum local = 4.51051e-10, global = -1.34687e-20, cumulative = -4.6397e-19
ExecutionTime = 4.75 s  ClockTime = 4 s

End

================================================================================
hash: 633fc6d10adea39dab398d3117b856d9
/*---------------------------------------------------------------------------*\
  =========                 |
  \\      /  F ield         | OpenFOAM: The Open Source CFD Toolbox
   \\    /   O peration     | Website:  https://openfoam.org
    \\  /    A nd           | Version:  8
     \\/     M anipulation  |
\*---------------------------------------------------------------------------*/
Build  : 8-ef60d22ea792
Exec   : icoFoam
Date   : Oct 22 2021
Time   : 21:25:33
Host   : "nla-gpu2.ianm.kit.edu"
PID    : 771155
I/O    : uncollated
Case   : /tmp/lidDrivenCavity3D/Variation_init/20/Variation_mesh/50/Variation_matrix_solver/CG_NoPrecond_HIP/1634930733
nProcs : 1
sigFpe : Enabling floating point exception trapping (FOAM_SIGFPE).
fileModificationChecking : Monitoring run-time modified files using timeStampMaster (fileModificationSkew 10)
allowSystemOperations : Allowing user-supplied system call operations

// * * * * * * * * * * * * * * * * * * * * * * * * * * * * * * * * * * * * * //
Create time

Create mesh for time = 0

Reading transportProperties

Reading field p

Reading field U

Reading/calculating face flux field phi


Starting time loop

Time = 0.002

Courant Number mean: 0 max: 0
DILUPBiCGStab:  Solving for Ux, Initial residual = 1, Final residual = 0.00137768, No Iterations 5
DILUPBiCGStab:  Solving for Uy:  solution singularity
DILUPBiCGStab:  Solving for Uz:  solution singularity
linear solve U 49571
[OGL LOG] init_host_sparsity_pattern : 55534 mu s
[OGL LOG] matrix not stored update host matrix
[OGL LOG] update_host_mtx : 29086 mu s
[OGL LOG] matrix is not yet sorted, compute sorting idxs
[OGL LOG] compute_sort : 1004071 mu s
[OGL LOG] matrix is not yet sorted, sorting host matrix
[OGL LOG] sort_host_mtx_sparsity_pattern : 26093 mu s
[OGL LOG] sort_host_mtx : 14913 mu s
[OGL LOG] create_and_push_b : 303 mu s
[OGL LOG] init_preconditioner : 4 mu s
[OGL LOG] solve : 200088 mu s
nonehipGKOCG:  Solving for p, Initial residual = 1, Final residual = 9.34501e-07, No Iterations 445
linear solve p 1778101
time step continuity errors : sum local = 1.52802e-09, global = -1.60804e-20, cumulative = -1.60804e-20
[OGL LOG] create_and_push_b : 349 mu s
[OGL LOG] init_preconditioner : 2 mu s
[OGL LOG] solve : 99753 mu s
nonehipGKOCG:  Solving for p, Initial residual = 0.720827, Final residual = 6.85346e-07, No Iterations 443
linear solve p 101530
time step continuity errors : sum local = 1.48831e-09, global = -9.75401e-21, cumulative = -2.58344e-20
ExecutionTime = 2.77 s  ClockTime = 3 s

Time = 0.004

Courant Number mean: 0.0719561 max: 0.726858
DILUPBiCGStab:  Solving for Ux, Initial residual = 0.151509, Final residual = 0.000378451, No Iterations 5
DILUPBiCGStab:  Solving for Uy, Initial residual = 0.353517, Final residual = 0.000771986, No Iterations 5
DILUPBiCGStab:  Solving for Uz, Initial residual = 0.977801, Final residual = 0.00234625, No Iterations 5
linear solve U 92721
[OGL LOG] create_and_push_b : 296 mu s
[OGL LOG] init_preconditioner : 2 mu s
[OGL LOG] solve : 99608 mu s
nonehipGKOCG:  Solving for p, Initial residual = 0.673633, Final residual = 4.18481e-07, No Iterations 443
linear solve p 101186
time step continuity errors : sum local = 9.93264e-10, global = -3.59992e-20, cumulative = -6.18336e-20
[OGL LOG] create_and_push_b : 267 mu s
[OGL LOG] init_preconditioner : 2 mu s
[OGL LOG] solve : 99684 mu s
nonehipGKOCG:  Solving for p, Initial residual = 0.598651, Final residual = 3.64617e-07, No Iterations 443
linear solve p 101236
time step continuity errors : sum local = 8.88391e-10, global = 4.54422e-20, cumulative = -1.63915e-20
ExecutionTime = 3.28 s  ClockTime = 3 s

Time = 0.006

Courant Number mean: 0.107243 max: 0.881423
DILUPBiCGStab:  Solving for Ux, Initial residual = 0.0526817, Final residual = 0.000105024, No Iterations 5
DILUPBiCGStab:  Solving for Uy, Initial residual = 0.117813, Final residual = 0.000233764, No Iterations 5
DILUPBiCGStab:  Solving for Uz, Initial residual = 0.455911, Final residual = 0.000979451, No Iterations 5
linear solve U 92332
[OGL LOG] create_and_push_b : 270 mu s
[OGL LOG] init_preconditioner : 2 mu s
[OGL LOG] solve : 101600 mu s
nonehipGKOCG:  Solving for p, Initial residual = 0.600737, Final residual = 3.66725e-07, No Iterations 443
linear solve p 103087
time step continuity errors : sum local = 6.11529e-10, global = 2.47569e-20, cumulative = 8.36541e-21
[OGL LOG] create_and_push_b : 378 mu s
[OGL LOG] init_preconditioner : 2 mu s
[OGL LOG] solve : 102925 mu s
nonehipGKOCG:  Solving for p, Initial residual = 0.551473, Final residual = 3.04727e-07, No Iterations 443
linear solve p 104731
time step continuity errors : sum local = 4.90727e-10, global = -5.42164e-21, cumulative = 2.94377e-21
ExecutionTime = 3.82 s  ClockTime = 4 s

End

================================================================================
hash: f9d81ada05052b185fa4e91174d134d9
/*---------------------------------------------------------------------------*\
  =========                 |
  \\      /  F ield         | OpenFOAM: The Open Source CFD Toolbox
   \\    /   O peration     | Website:  https://openfoam.org
    \\  /    A nd           | Version:  8
     \\/     M anipulation  |
\*---------------------------------------------------------------------------*/
Build  : 8-ef60d22ea792
Exec   : icoFoam
Date   : Oct 22 2021
Time   : 21:25:18
Host   : "nla-gpu2.ianm.kit.edu"
PID    : 770934
I/O    : uncollated
Case   : /tmp/lidDrivenCavity3D/Variation_init/20/Variation_mesh/100/Variation_matrix_solver/BiCGStab_NoPrecond_HIP/1634930718
nProcs : 1
sigFpe : Enabling floating point exception trapping (FOAM_SIGFPE).
fileModificationChecking : Monitoring run-time modified files using timeStampMaster (fileModificationSkew 10)
allowSystemOperations : Allowing user-supplied system call operations

// * * * * * * * * * * * * * * * * * * * * * * * * * * * * * * * * * * * * * //
Create time

Create mesh for time = 0

Reading transportProperties

Reading field p

Reading field U

Reading/calculating face flux field phi


Starting time loop

Time = 0.001

Courant Number mean: 0 max: 0
DILUPBiCGStab:  Solving for Ux, Initial residual = 1, Final residual = 0.00717233, No Iterations 5
DILUPBiCGStab:  Solving for Uy:  solution singularity
DILUPBiCGStab:  Solving for Uz:  solution singularity
linear solve U 413530
[OGL LOG] init_host_sparsity_pattern : 469938 mu s
[OGL LOG] matrix not stored update host matrix
[OGL LOG] update_host_mtx : 232946 mu s
[OGL LOG] matrix is not yet sorted, compute sorting idxs
[OGL LOG] compute_sort : 8882570 mu s
[OGL LOG] matrix is not yet sorted, sorting host matrix
[OGL LOG] sort_host_mtx_sparsity_pattern : 233582 mu s
[OGL LOG] sort_host_mtx : 137236 mu s
[OGL LOG] create_and_push_b : 1972 mu s
[OGL LOG] init_preconditioner : 11 mu s
[OGL LOG] solve : 1361951 mu s
nonehipGKOBiCGStab:  Solving for p, Initial residual = 1, Final residual = 7.60822e-07, No Iterations 1424
linear solve p 11826736
time step continuity errors : sum local = 0.000181209, global = 8.38037e-21, cumulative = 8.38037e-21
[OGL LOG] create_and_push_b : 2071 mu s
[OGL LOG] init_preconditioner : 4 mu s
[OGL LOG] solve : 1202306 mu s
nonehipGKOBiCGStab:  Solving for p, Initial residual = 0.823765, Final residual = 3.94434e-07, No Iterations 1849
linear solve p 1213789
time step continuity errors : sum local = 7.31593e-10, global = 4.00865e-21, cumulative = 1.2389e-20
ExecutionTime = 19.86 s  ClockTime = 18 s

Time = 0.002

Courant Number mean: 0.0560721 max: 0.805573
DILUPBiCGStab:  Solving for Ux, Initial residual = 0.138286, Final residual = 0.00319048, No Iterations 5
DILUPBiCGStab:  Solving for Uy, Initial residual = 0.431515, Final residual = 0.00910043, No Iterations 5
DILUPBiCGStab:  Solving for Uz, Initial residual = 0.944224, Final residual = 0.0200341, No Iterations 5
linear solve U 812586
[OGL LOG] create_and_push_b : 1992 mu s
[OGL LOG] init_preconditioner : 4 mu s
[OGL LOG] solve : 994225 mu s
nonehipGKOBiCGStab:  Solving for p, Initial residual = 0.823125, Final residual = 1.39178e-07, No Iterations 1534
linear solve p 1005157
time step continuity errors : sum local = 5.62494e-07, global = 1.89541e-21, cumulative = 1.42844e-20
[OGL LOG] create_and_push_b : 2078 mu s
[OGL LOG] init_preconditioner : 4 mu s
[OGL LOG] solve : 952683 mu s
nonehipGKOBiCGStab:  Solving for p, Initial residual = 0.753057, Final residual = 6.86134e-07, No Iterations 1465
linear solve p 966544
time step continuity errors : sum local = 1.65254e-09, global = 7.47409e-21, cumulative = 2.17585e-20
ExecutionTime = 24.56 s  ClockTime = 21 s

Time = 0.003

Courant Number mean: 0.0853149 max: 0.945216
DILUPBiCGStab:  Solving for Ux, Initial residual = 0.0649258, Final residual = 0.00112787, No Iterations 5
DILUPBiCGStab:  Solving for Uy, Initial residual = 0.227763, Final residual = 0.00296898, No Iterations 5
DILUPBiCGStab:  Solving for Uz, Initial residual = 0.810094, Final residual = 0.0138592, No Iterations 5
linear solve U 821300
[OGL LOG] create_and_push_b : 2417 mu s
[OGL LOG] init_preconditioner : 4 mu s
[OGL LOG] solve : 1047315 mu s
nonehipGKOBiCGStab:  Solving for p, Initial residual = 0.846426, Final residual = 1.95997e-07, No Iterations 1625
linear solve p 1059938
time step continuity errors : sum local = 4.16674e-10, global = 8.11633e-21, cumulative = 2.98749e-20
[OGL LOG] create_and_push_b : 2039 mu s
[OGL LOG] init_preconditioner : 4 mu s
[OGL LOG] solve : 973052 mu s
nonehipGKOBiCGStab:  Solving for p, Initial residual = 0.802985, Final residual = 3.31949e-07, No Iterations 1496
linear solve p 985122
time step continuity errors : sum local = 4.05544e-06, global = -8.36087e-21, cumulative = 2.1514e-20
ExecutionTime = 29.4 s  ClockTime = 24 s

End

================================================================================
hash: d62e8e79b9720dd79a35fe36872250e0
/*---------------------------------------------------------------------------*\
  =========                 |
  \\      /  F ield         | OpenFOAM: The Open Source CFD Toolbox
   \\    /   O peration     | Website:  https://openfoam.org
    \\  /    A nd           | Version:  8
     \\/     M anipulation  |
\*---------------------------------------------------------------------------*/
Build  : 8-ef60d22ea792
Exec   : icoFoam
Date   : Oct 22 2021
Time   : 21:26:02
Host   : "nla-gpu2.ianm.kit.edu"
PID    : 771805
I/O    : uncollated
Case   : /tmp/lidDrivenCavity3D/Variation_init/20/Variation_mesh/50/Variation_matrix_solver/CG_BJ_HIP/Variation_maxBlockSize/8/1634930762
nProcs : 1
sigFpe : Enabling floating point exception trapping (FOAM_SIGFPE).
fileModificationChecking : Monitoring run-time modified files using timeStampMaster (fileModificationSkew 10)
allowSystemOperations : Allowing user-supplied system call operations

// * * * * * * * * * * * * * * * * * * * * * * * * * * * * * * * * * * * * * //
Create time

Create mesh for time = 0

Reading transportProperties

Reading field p

Reading field U

Reading/calculating face flux field phi


Starting time loop

Time = 0.002

Courant Number mean: 0 max: 0
DILUPBiCGStab:  Solving for Ux, Initial residual = 1, Final residual = 0.00137768, No Iterations 5
DILUPBiCGStab:  Solving for Uy:  solution singularity
DILUPBiCGStab:  Solving for Uz:  solution singularity
linear solve U 48887
[OGL LOG] init_host_sparsity_pattern : 58962 mu s
[OGL LOG] matrix not stored update host matrix
[OGL LOG] update_host_mtx : 29602 mu s
[OGL LOG] matrix is not yet sorted, compute sorting idxs
[OGL LOG] compute_sort : 1008691 mu s
[OGL LOG] matrix is not yet sorted, sorting host matrix
[OGL LOG] sort_host_mtx_sparsity_pattern : 27458 mu s
[OGL LOG] sort_host_mtx : 20606 mu s
[OGL LOG] create_and_push_b : 579 mu s
[OGL LOG] init_preconditioner : 107573 mu s
[OGL LOG] solve : 191455 mu s
BJhipGKOCG:  Solving for p, Initial residual = 1, Final residual = 9.61614e-07, No Iterations 405
linear solve p 1894935
time step continuity errors : sum local = 1.57238e-09, global = 5.13872e-21, cumulative = 5.13872e-21
[OGL LOG] init_host_sparsity_pattern : 56688 mu s
[OGL LOG] matrix not stored update host matrix
[OGL LOG] update_host_mtx : 28928 mu s
[OGL LOG] matrix is not yet sorted, sorting host matrix
[OGL LOG] sort_host_mtx_sparsity_pattern : 27474 mu s
[OGL LOG] sort_host_mtx : 19902 mu s
[OGL LOG] create_and_push_b : 519 mu s
[OGL LOG] init_preconditioner : 7 mu s
[OGL LOG] solve : 97210 mu s
BJhipGKOCG:  Solving for p, Initial residual = 0.720827, Final residual = 8.5845e-07, No Iterations 401
linear solve p 235803
time step continuity errors : sum local = 1.86416e-09, global = 6.50459e-21, cumulative = 1.16433e-20
ExecutionTime = 3.01 s  ClockTime = 3 s

Time = 0.004

Courant Number mean: 0.0719561 max: 0.726858
DILUPBiCGStab:  Solving for Ux, Initial residual = 0.151509, Final residual = 0.000378451, No Iterations 5
DILUPBiCGStab:  Solving for Uy, Initial residual = 0.353517, Final residual = 0.000771986, No Iterations 5
DILUPBiCGStab:  Solving for Uz, Initial residual = 0.977801, Final residual = 0.00234625, No Iterations 5
linear solve U 92454
[OGL LOG] init_host_sparsity_pattern : 56338 mu s
[OGL LOG] matrix not stored update host matrix
[OGL LOG] update_host_mtx : 29364 mu s
[OGL LOG] matrix is not yet sorted, sorting host matrix
[OGL LOG] sort_host_mtx_sparsity_pattern : 26947 mu s
[OGL LOG] sort_host_mtx : 19906 mu s
[OGL LOG] create_and_push_b : 504 mu s
[OGL LOG] init_preconditioner : 1 mu s
[OGL LOG] solve : 100389 mu s
BJhipGKOCG:  Solving for p, Initial residual = 0.673633, Final residual = 2.48236e-07, No Iterations 417
linear solve p 238659
time step continuity errors : sum local = 5.89112e-10, global = -1.2142e-20, cumulative = -4.98669e-22
[OGL LOG] init_host_sparsity_pattern : 56639 mu s
[OGL LOG] matrix not stored update host matrix
[OGL LOG] update_host_mtx : 28960 mu s
[OGL LOG] matrix is not yet sorted, sorting host matrix
[OGL LOG] sort_host_mtx_sparsity_pattern : 26974 mu s
[OGL LOG] sort_host_mtx : 19891 mu s
[OGL LOG] create_and_push_b : 497 mu s
[OGL LOG] init_preconditioner : 1 mu s
[OGL LOG] solve : 100465 mu s
BJhipGKOCG:  Solving for p, Initial residual = 0.598651, Final residual = 2.06002e-07, No Iterations 417
linear solve p 238483
time step continuity errors : sum local = 5.01851e-10, global = -1.83065e-20, cumulative = -1.88052e-20
ExecutionTime = 3.81 s  ClockTime = 4 s

Time = 0.006

Courant Number mean: 0.107243 max: 0.881423
DILUPBiCGStab:  Solving for Ux, Initial residual = 0.0526817, Final residual = 0.000105024, No Iterations 5
DILUPBiCGStab:  Solving for Uy, Initial residual = 0.117813, Final residual = 0.000233764, No Iterations 5
DILUPBiCGStab:  Solving for Uz, Initial residual = 0.455908, Final residual = 0.000979439, No Iterations 5
linear solve U 93361
[OGL LOG] init_host_sparsity_pattern : 56377 mu s
[OGL LOG] matrix not stored update host matrix
[OGL LOG] update_host_mtx : 29414 mu s
[OGL LOG] matrix is not yet sorted, sorting host matrix
[OGL LOG] sort_host_mtx_sparsity_pattern : 27137 mu s
[OGL LOG] sort_host_mtx : 20015 mu s
[OGL LOG] create_and_push_b : 519 mu s
[OGL LOG] init_preconditioner : 1 mu s
[OGL LOG] solve : 92649 mu s
BJhipGKOCG:  Solving for p, Initial residual = 0.600737, Final residual = 4.47936e-07, No Iterations 385
linear solve p 231335
time step continuity errors : sum local = 7.47029e-10, global = -1.57505e-20, cumulative = -3.45557e-20
[OGL LOG] init_host_sparsity_pattern : 56350 mu s
[OGL LOG] matrix not stored update host matrix
[OGL LOG] update_host_mtx : 28623 mu s
[OGL LOG] matrix is not yet sorted, sorting host matrix
[OGL LOG] sort_host_mtx_sparsity_pattern : 27623 mu s
[OGL LOG] sort_host_mtx : 19885 mu s
[OGL LOG] create_and_push_b : 545 mu s
[OGL LOG] init_preconditioner : 1 mu s
[OGL LOG] solve : 90380 mu s
BJhipGKOCG:  Solving for p, Initial residual = 0.551473, Final residual = 5.92629e-07, No Iterations 376
linear solve p 227947
time step continuity errors : sum local = 9.54329e-10, global = 3.75878e-20, cumulative = 3.03206e-21
ExecutionTime = 4.58 s  ClockTime = 4 s

End

================================================================================
hash: 22f40739c44f767d070cd8e3b38acd85
/*---------------------------------------------------------------------------*\
  =========                 |
  \\      /  F ield         | OpenFOAM: The Open Source CFD Toolbox
   \\    /   O peration     | Website:  https://openfoam.org
    \\  /    A nd           | Version:  8
     \\/     M anipulation  |
\*---------------------------------------------------------------------------*/
Build  : 8-ef60d22ea792
Exec   : icoFoam
Date   : Oct 22 2021
Time   : 21:26:06
Host   : "nla-gpu2.ianm.kit.edu"
PID    : 771841
I/O    : uncollated
Case   : /tmp/lidDrivenCavity3D/Variation_init/20/Variation_mesh/50/Variation_matrix_solver/CG_BJ_HIP/Variation_maxBlockSize/16/1634930766
nProcs : 1
sigFpe : Enabling floating point exception trapping (FOAM_SIGFPE).
fileModificationChecking : Monitoring run-time modified files using timeStampMaster (fileModificationSkew 10)
allowSystemOperations : Allowing user-supplied system call operations

// * * * * * * * * * * * * * * * * * * * * * * * * * * * * * * * * * * * * * //
Create time

Create mesh for time = 0

Reading transportProperties

Reading field p

Reading field U

Reading/calculating face flux field phi


Starting time loop

Time = 0.002

Courant Number mean: 0 max: 0
DILUPBiCGStab:  Solving for Ux, Initial residual = 1, Final residual = 0.00137768, No Iterations 5
DILUPBiCGStab:  Solving for Uy:  solution singularity
DILUPBiCGStab:  Solving for Uz:  solution singularity
linear solve U 48606
[OGL LOG] init_host_sparsity_pattern : 57099 mu s
[OGL LOG] matrix not stored update host matrix
[OGL LOG] update_host_mtx : 29130 mu s
[OGL LOG] matrix is not yet sorted, compute sorting idxs
[OGL LOG] compute_sort : 1012398 mu s
[OGL LOG] matrix is not yet sorted, sorting host matrix
[OGL LOG] sort_host_mtx_sparsity_pattern : 27847 mu s
[OGL LOG] sort_host_mtx : 21141 mu s
[OGL LOG] create_and_push_b : 582 mu s
[OGL LOG] init_preconditioner : 109734 mu s
[OGL LOG] solve : 191659 mu s
BJhipGKOCG:  Solving for p, Initial residual = 1, Final residual = 9.61614e-07, No Iterations 405
linear solve p 1886611
time step continuity errors : sum local = 1.57238e-09, global = 5.13872e-21, cumulative = 5.13872e-21
[OGL LOG] init_host_sparsity_pattern : 56294 mu s
[OGL LOG] matrix not stored update host matrix
[OGL LOG] update_host_mtx : 29260 mu s
[OGL LOG] matrix is not yet sorted, sorting host matrix
[OGL LOG] sort_host_mtx_sparsity_pattern : 25866 mu s
[OGL LOG] sort_host_mtx : 19134 mu s
[OGL LOG] create_and_push_b : 530 mu s
[OGL LOG] init_preconditioner : 7 mu s
[OGL LOG] solve : 96325 mu s
BJhipGKOCG:  Solving for p, Initial residual = 0.720827, Final residual = 8.5845e-07, No Iterations 401
linear solve p 232556
time step continuity errors : sum local = 1.86416e-09, global = 6.50459e-21, cumulative = 1.16433e-20
ExecutionTime = 2.97 s  ClockTime = 3 s

Time = 0.004

Courant Number mean: 0.0719561 max: 0.726858
DILUPBiCGStab:  Solving for Ux, Initial residual = 0.151509, Final residual = 0.000378451, No Iterations 5
DILUPBiCGStab:  Solving for Uy, Initial residual = 0.353517, Final residual = 0.000771986, No Iterations 5
DILUPBiCGStab:  Solving for Uz, Initial residual = 0.977801, Final residual = 0.00234625, No Iterations 5
linear solve U 92707
[OGL LOG] init_host_sparsity_pattern : 56003 mu s
[OGL LOG] matrix not stored update host matrix
[OGL LOG] update_host_mtx : 30129 mu s
[OGL LOG] matrix is not yet sorted, sorting host matrix
[OGL LOG] sort_host_mtx_sparsity_pattern : 25372 mu s
[OGL LOG] sort_host_mtx : 19130 mu s
[OGL LOG] create_and_push_b : 500 mu s
[OGL LOG] init_preconditioner : 1 mu s
[OGL LOG] solve : 100259 mu s
BJhipGKOCG:  Solving for p, Initial residual = 0.673633, Final residual = 2.48236e-07, No Iterations 417
linear solve p 236649
time step continuity errors : sum local = 5.89112e-10, global = -1.2142e-20, cumulative = -4.98669e-22
[OGL LOG] init_host_sparsity_pattern : 55737 mu s
[OGL LOG] matrix not stored update host matrix
[OGL LOG] update_host_mtx : 29247 mu s
[OGL LOG] matrix is not yet sorted, sorting host matrix
[OGL LOG] sort_host_mtx_sparsity_pattern : 25476 mu s
[OGL LOG] sort_host_mtx : 19548 mu s
[OGL LOG] create_and_push_b : 516 mu s
[OGL LOG] init_preconditioner : 1 mu s
[OGL LOG] solve : 100103 mu s
BJhipGKOCG:  Solving for p, Initial residual = 0.598651, Final residual = 2.06002e-07, No Iterations 417
linear solve p 235484
time step continuity errors : sum local = 5.01851e-10, global = -1.83065e-20, cumulative = -1.88052e-20
ExecutionTime = 3.77 s  ClockTime = 4 s

Time = 0.006

Courant Number mean: 0.107243 max: 0.881423
DILUPBiCGStab:  Solving for Ux, Initial residual = 0.0526817, Final residual = 0.000105024, No Iterations 5
DILUPBiCGStab:  Solving for Uy, Initial residual = 0.117813, Final residual = 0.000233764, No Iterations 5
DILUPBiCGStab:  Solving for Uz, Initial residual = 0.455908, Final residual = 0.000979439, No Iterations 5
linear solve U 93255
[OGL LOG] init_host_sparsity_pattern : 55168 mu s
[OGL LOG] matrix not stored update host matrix
[OGL LOG] update_host_mtx : 29460 mu s
[OGL LOG] matrix is not yet sorted, sorting host matrix
[OGL LOG] sort_host_mtx_sparsity_pattern : 25392 mu s
[OGL LOG] sort_host_mtx : 19261 mu s
[OGL LOG] create_and_push_b : 515 mu s
[OGL LOG] init_preconditioner : 1 mu s
[OGL LOG] solve : 92197 mu s
BJhipGKOCG:  Solving for p, Initial residual = 0.600737, Final residual = 4.47936e-07, No Iterations 385
linear solve p 227080
time step continuity errors : sum local = 7.47029e-10, global = -1.57505e-20, cumulative = -3.45557e-20
[OGL LOG] init_host_sparsity_pattern : 55755 mu s
[OGL LOG] matrix not stored update host matrix
[OGL LOG] update_host_mtx : 28481 mu s
[OGL LOG] matrix is not yet sorted, sorting host matrix
[OGL LOG] sort_host_mtx_sparsity_pattern : 25392 mu s
[OGL LOG] sort_host_mtx : 19465 mu s
[OGL LOG] create_and_push_b : 539 mu s
[OGL LOG] init_preconditioner : 1 mu s
[OGL LOG] solve : 90220 mu s
BJhipGKOCG:  Solving for p, Initial residual = 0.551473, Final residual = 5.92629e-07, No Iterations 376
linear solve p 224718
time step continuity errors : sum local = 9.54329e-10, global = 3.75878e-20, cumulative = 3.03206e-21
ExecutionTime = 4.53 s  ClockTime = 4 s

End

================================================================================
hash: d64e987ece95f40de34db05847a9a3bc
/*---------------------------------------------------------------------------*\
  =========                 |
  \\      /  F ield         | OpenFOAM: The Open Source CFD Toolbox
   \\    /   O peration     | Website:  https://openfoam.org
    \\  /    A nd           | Version:  8
     \\/     M anipulation  |
\*---------------------------------------------------------------------------*/
Build  : 8-ef60d22ea792
Exec   : icoFoam
Date   : Oct 22 2021
Time   : 21:26:11
Host   : "nla-gpu2.ianm.kit.edu"
PID    : 771901
I/O    : uncollated
Case   : /tmp/lidDrivenCavity3D/Variation_init/20/Variation_mesh/50/Variation_matrix_solver/CG_BJ_HIP/Variation_maxBlockSize/16/1634930771
nProcs : 1
sigFpe : Enabling floating point exception trapping (FOAM_SIGFPE).
fileModificationChecking : Monitoring run-time modified files using timeStampMaster (fileModificationSkew 10)
allowSystemOperations : Allowing user-supplied system call operations

// * * * * * * * * * * * * * * * * * * * * * * * * * * * * * * * * * * * * * //
Create time

Create mesh for time = 0

Reading transportProperties

Reading field p

Reading field U

Reading/calculating face flux field phi


Starting time loop

Time = 0.002

Courant Number mean: 0 max: 0
DILUPBiCGStab:  Solving for Ux, Initial residual = 1, Final residual = 0.00137768, No Iterations 5
DILUPBiCGStab:  Solving for Uy:  solution singularity
DILUPBiCGStab:  Solving for Uz:  solution singularity
linear solve U 48420
[OGL LOG] init_host_sparsity_pattern : 58075 mu s
[OGL LOG] matrix not stored update host matrix
[OGL LOG] update_host_mtx : 29251 mu s
[OGL LOG] matrix is not yet sorted, compute sorting idxs
[OGL LOG] compute_sort : 1006859 mu s
[OGL LOG] matrix is not yet sorted, sorting host matrix
[OGL LOG] sort_host_mtx_sparsity_pattern : 27309 mu s
[OGL LOG] sort_host_mtx : 16524 mu s
[OGL LOG] create_and_push_b : 565 mu s
[OGL LOG] init_preconditioner : 111632 mu s
[OGL LOG] solve : 191845 mu s
BJhipGKOCG:  Solving for p, Initial residual = 1, Final residual = 9.61614e-07, No Iterations 405
linear solve p 1889821
time step continuity errors : sum local = 1.57238e-09, global = 5.13872e-21, cumulative = 5.13872e-21
[OGL LOG] init_host_sparsity_pattern : 55807 mu s
[OGL LOG] matrix not stored update host matrix
[OGL LOG] update_host_mtx : 29710 mu s
[OGL LOG] matrix is not yet sorted, sorting host matrix
[OGL LOG] sort_host_mtx_sparsity_pattern : 27572 mu s
[OGL LOG] sort_host_mtx : 16117 mu s
[OGL LOG] create_and_push_b : 525 mu s
[OGL LOG] init_preconditioner : 7 mu s
[OGL LOG] solve : 96183 mu s
BJhipGKOCG:  Solving for p, Initial residual = 0.720827, Final residual = 8.5845e-07, No Iterations 401
linear solve p 231058
time step continuity errors : sum local = 1.86416e-09, global = 6.50459e-21, cumulative = 1.16433e-20
ExecutionTime = 2.97 s  ClockTime = 2 s

Time = 0.004

Courant Number mean: 0.0719561 max: 0.726858
DILUPBiCGStab:  Solving for Ux, Initial residual = 0.151509, Final residual = 0.000378451, No Iterations 5
DILUPBiCGStab:  Solving for Uy, Initial residual = 0.353517, Final residual = 0.000771986, No Iterations 5
DILUPBiCGStab:  Solving for Uz, Initial residual = 0.977801, Final residual = 0.00234625, No Iterations 5
linear solve U 91934
[OGL LOG] init_host_sparsity_pattern : 55777 mu s
[OGL LOG] matrix not stored update host matrix
[OGL LOG] update_host_mtx : 29538 mu s
[OGL LOG] matrix is not yet sorted, sorting host matrix
[OGL LOG] sort_host_mtx_sparsity_pattern : 27170 mu s
[OGL LOG] sort_host_mtx : 15718 mu s
[OGL LOG] create_and_push_b : 515 mu s
[OGL LOG] init_preconditioner : 1 mu s
[OGL LOG] solve : 100296 mu s
BJhipGKOCG:  Solving for p, Initial residual = 0.673633, Final residual = 2.48236e-07, No Iterations 417
linear solve p 234323
time step continuity errors : sum local = 5.89112e-10, global = -1.2142e-20, cumulative = -4.98669e-22
[OGL LOG] init_host_sparsity_pattern : 55891 mu s
[OGL LOG] matrix not stored update host matrix
[OGL LOG] update_host_mtx : 29737 mu s
[OGL LOG] matrix is not yet sorted, sorting host matrix
[OGL LOG] sort_host_mtx_sparsity_pattern : 27232 mu s
[OGL LOG] sort_host_mtx : 15808 mu s
[OGL LOG] create_and_push_b : 502 mu s
[OGL LOG] init_preconditioner : 1 mu s
[OGL LOG] solve : 100563 mu s
BJhipGKOCG:  Solving for p, Initial residual = 0.598651, Final residual = 2.06002e-07, No Iterations 417
linear solve p 234582
time step continuity errors : sum local = 5.01851e-10, global = -1.83065e-20, cumulative = -1.88052e-20
ExecutionTime = 3.77 s  ClockTime = 3 s

Time = 0.006

Courant Number mean: 0.107243 max: 0.881423
DILUPBiCGStab:  Solving for Ux, Initial residual = 0.0526817, Final residual = 0.000105024, No Iterations 5
DILUPBiCGStab:  Solving for Uy, Initial residual = 0.117813, Final residual = 0.000233764, No Iterations 5
DILUPBiCGStab:  Solving for Uz, Initial residual = 0.455908, Final residual = 0.000979439, No Iterations 5
linear solve U 92312
[OGL LOG] init_host_sparsity_pattern : 56089 mu s
[OGL LOG] matrix not stored update host matrix
[OGL LOG] update_host_mtx : 31277 mu s
[OGL LOG] matrix is not yet sorted, sorting host matrix
[OGL LOG] sort_host_mtx_sparsity_pattern : 26966 mu s
[OGL LOG] sort_host_mtx : 15779 mu s
[OGL LOG] create_and_push_b : 529 mu s
[OGL LOG] init_preconditioner : 1 mu s
[OGL LOG] solve : 92322 mu s
BJhipGKOCG:  Solving for p, Initial residual = 0.600737, Final residual = 4.47936e-07, No Iterations 385
linear solve p 228038
time step continuity errors : sum local = 7.47029e-10, global = -1.57505e-20, cumulative = -3.45557e-20
[OGL LOG] init_host_sparsity_pattern : 55428 mu s
[OGL LOG] matrix not stored update host matrix
[OGL LOG] update_host_mtx : 29453 mu s
[OGL LOG] matrix is not yet sorted, sorting host matrix
[OGL LOG] sort_host_mtx_sparsity_pattern : 26954 mu s
[OGL LOG] sort_host_mtx : 15752 mu s
[OGL LOG] create_and_push_b : 539 mu s
[OGL LOG] init_preconditioner : 1 mu s
[OGL LOG] solve : 90609 mu s
BJhipGKOCG:  Solving for p, Initial residual = 0.551473, Final residual = 5.92629e-07, No Iterations 376
linear solve p 223429
time step continuity errors : sum local = 9.54329e-10, global = 3.75878e-20, cumulative = 3.03206e-21
ExecutionTime = 4.53 s  ClockTime = 4 s

End

================================================================================
hash: cb8eeb9599aee77de2170b470587eb0e
/*---------------------------------------------------------------------------*\
  =========                 |
  \\      /  F ield         | OpenFOAM: The Open Source CFD Toolbox
   \\    /   O peration     | Website:  https://openfoam.org
    \\  /    A nd           | Version:  8
     \\/     M anipulation  |
\*---------------------------------------------------------------------------*/
Build  : 8-ef60d22ea792
Exec   : icoFoam
Date   : Oct 22 2021
Time   : 21:26:15
Host   : "nla-gpu2.ianm.kit.edu"
PID    : 771963
I/O    : uncollated
Case   : /tmp/lidDrivenCavity3D/Variation_init/20/Variation_mesh/50/Variation_matrix_solver/CG_ILU_HIP/1634930775
nProcs : 1
sigFpe : Enabling floating point exception trapping (FOAM_SIGFPE).
fileModificationChecking : Monitoring run-time modified files using timeStampMaster (fileModificationSkew 10)
allowSystemOperations : Allowing user-supplied system call operations

// * * * * * * * * * * * * * * * * * * * * * * * * * * * * * * * * * * * * * //
Create time

Create mesh for time = 0

Reading transportProperties

Reading field p

Reading field U

Reading/calculating face flux field phi


Starting time loop

Time = 0.002

Courant Number mean: 0 max: 0
DILUPBiCGStab:  Solving for Ux, Initial residual = 1, Final residual = 0.00137768, No Iterations 5
DILUPBiCGStab:  Solving for Uy:  solution singularity
DILUPBiCGStab:  Solving for Uz:  solution singularity
linear solve U 49186
[OGL LOG] init_host_sparsity_pattern : 58867 mu s
[OGL LOG] matrix not stored update host matrix
[OGL LOG] update_host_mtx : 29895 mu s
[OGL LOG] matrix is not yet sorted, compute sorting idxs
[OGL LOG] compute_sort : 1018226 mu s
[OGL LOG] matrix is not yet sorted, sorting host matrix
[OGL LOG] sort_host_mtx_sparsity_pattern : 27580 mu s
[OGL LOG] sort_host_mtx : 21069 mu s
[OGL LOG] create_and_push_b : 302 mu s
[OGL LOG] init_preconditioner : 30567 mu s
[OGL LOG] solve : 220772 mu s
ILUhipGKOCG:  Solving for p, Initial residual = 1, Final residual = 8.55748e-07, No Iterations 140
linear solve p 1856402
time step continuity errors : sum local = 1.39915e-09, global = -2.01353e-20, cumulative = -2.01353e-20
[OGL LOG] create_and_push_b : 355 mu s
[OGL LOG] init_preconditioner : 8 mu s
[OGL LOG] solve : 163001 mu s
ILUhipGKOCG:  Solving for p, Initial residual = 0.720827, Final residual = 3.50514e-07, No Iterations 141
linear solve p 164682
time step continuity errors : sum local = 7.61196e-10, global = -1.5739e-20, cumulative = -3.58744e-20
ExecutionTime = 2.89 s  ClockTime = 3 s

Time = 0.004

Courant Number mean: 0.0719561 max: 0.726858
DILUPBiCGStab:  Solving for Ux, Initial residual = 0.151509, Final residual = 0.000378451, No Iterations 5
DILUPBiCGStab:  Solving for Uy, Initial residual = 0.353517, Final residual = 0.000771986, No Iterations 5
DILUPBiCGStab:  Solving for Uz, Initial residual = 0.977801, Final residual = 0.00234625, No Iterations 5
linear solve U 92671
[OGL LOG] create_and_push_b : 267 mu s
[OGL LOG] init_preconditioner : 1 mu s
[OGL LOG] solve : 153889 mu s
ILUhipGKOCG:  Solving for p, Initial residual = 0.673634, Final residual = 8.83619e-07, No Iterations 136
linear solve p 155371
time step continuity errors : sum local = 2.09691e-09, global = -2.30594e-20, cumulative = -5.89337e-20
[OGL LOG] create_and_push_b : 273 mu s
[OGL LOG] init_preconditioner : 1 mu s
[OGL LOG] solve : 157340 mu s
ILUhipGKOCG:  Solving for p, Initial residual = 0.598651, Final residual = 7.40057e-07, No Iterations 136
linear solve p 158793
time step continuity errors : sum local = 1.803e-09, global = 2.78952e-21, cumulative = -5.61442e-20
ExecutionTime = 3.55 s  ClockTime = 3 s

Time = 0.006

Courant Number mean: 0.107243 max: 0.881423
DILUPBiCGStab:  Solving for Ux, Initial residual = 0.0526817, Final residual = 0.000105024, No Iterations 5
DILUPBiCGStab:  Solving for Uy, Initial residual = 0.117813, Final residual = 0.000233764, No Iterations 5
DILUPBiCGStab:  Solving for Uz, Initial residual = 0.455907, Final residual = 0.000979415, No Iterations 5
linear solve U 97369
[OGL LOG] create_and_push_b : 289 mu s
[OGL LOG] init_preconditioner : 1 mu s
[OGL LOG] solve : 126891 mu s
ILUhipGKOCG:  Solving for p, Initial residual = 0.600736, Final residual = 7.16916e-07, No Iterations 136
linear solve p 128354
time step continuity errors : sum local = 1.19544e-09, global = -4.90539e-20, cumulative = -1.05198e-19
[OGL LOG] create_and_push_b : 283 mu s
[OGL LOG] init_preconditioner : 1 mu s
[OGL LOG] solve : 126874 mu s
ILUhipGKOCG:  Solving for p, Initial residual = 0.551472, Final residual = 6.59271e-07, No Iterations 136
linear solve p 128345
time step continuity errors : sum local = 1.06178e-09, global = -3.81598e-20, cumulative = -1.43358e-19
ExecutionTime = 4.15 s  ClockTime = 3 s

End

================================================================================
hash: e627a803b1053b8dc268757db57c0394
/*---------------------------------------------------------------------------*\
  =========                 |
  \\      /  F ield         | OpenFOAM: The Open Source CFD Toolbox
   \\    /   O peration     | Website:  https://openfoam.org
    \\  /    A nd           | Version:  8
     \\/     M anipulation  |
\*---------------------------------------------------------------------------*/
Build  : 8-ef60d22ea792
Exec   : icoFoam
Date   : Oct 22 2021
Time   : 21:26:19
Host   : "nla-gpu2.ianm.kit.edu"
PID    : 772334
I/O    : uncollated
Case   : /tmp/lidDrivenCavity3D/Variation_init/20/Variation_mesh/50/Variation_matrix_solver/BiCGStab_NoPrecond_HIP/1634930779
nProcs : 1
sigFpe : Enabling floating point exception trapping (FOAM_SIGFPE).
fileModificationChecking : Monitoring run-time modified files using timeStampMaster (fileModificationSkew 10)
allowSystemOperations : Allowing user-supplied system call operations

// * * * * * * * * * * * * * * * * * * * * * * * * * * * * * * * * * * * * * //
Create time

Create mesh for time = 0

Reading transportProperties

Reading field p

Reading field U

Reading/calculating face flux field phi


Starting time loop

Time = 0.002

Courant Number mean: 0 max: 0
DILUPBiCGStab:  Solving for Ux, Initial residual = 1, Final residual = 0.00137768, No Iterations 5
DILUPBiCGStab:  Solving for Uy:  solution singularity
DILUPBiCGStab:  Solving for Uz:  solution singularity
linear solve U 49192
[OGL LOG] init_host_sparsity_pattern : 58949 mu s
[OGL LOG] matrix not stored update host matrix
[OGL LOG] update_host_mtx : 28438 mu s
[OGL LOG] matrix is not yet sorted, compute sorting idxs
[OGL LOG] compute_sort : 999092 mu s
[OGL LOG] matrix is not yet sorted, sorting host matrix
[OGL LOG] sort_host_mtx_sparsity_pattern : 27491 mu s
[OGL LOG] sort_host_mtx : 22076 mu s
[OGL LOG] create_and_push_b : 343 mu s
[OGL LOG] init_preconditioner : 5 mu s
[OGL LOG] solve : 294224 mu s
nonehipGKOBiCGStab:  Solving for p, Initial residual = 1, Final residual = 7.71557e-07, No Iterations 722
linear solve p 1881475
time step continuity errors : sum local = 9.30617e-05, global = 1.80789e-20, cumulative = 1.80789e-20
[OGL LOG] create_and_push_b : 269 mu s
[OGL LOG] init_preconditioner : 3 mu s
[OGL LOG] solve : 155732 mu s
nonehipGKOBiCGStab:  Solving for p, Initial residual = 0.728361, Final residual = 5.47087e-07, No Iterations 701
linear solve p 157617
time step continuity errors : sum local = 2.47e-09, global = 1.16021e-20, cumulative = 2.96809e-20
ExecutionTime = 3.06 s  ClockTime = 2 s

Time = 0.004

Courant Number mean: 0.0719561 max: 0.726859
DILUPBiCGStab:  Solving for Ux, Initial residual = 0.15151, Final residual = 0.000378451, No Iterations 5
DILUPBiCGStab:  Solving for Uy, Initial residual = 0.353524, Final residual = 0.00077199, No Iterations 5
DILUPBiCGStab:  Solving for Uz, Initial residual = 0.973333, Final residual = 0.00230489, No Iterations 5
linear solve U 93332
[OGL LOG] create_and_push_b : 280 mu s
[OGL LOG] init_preconditioner : 2 mu s
[OGL LOG] solve : 177696 mu s
nonehipGKOBiCGStab:  Solving for p, Initial residual = 0.674001, Final residual = 1.67006e-07, No Iterations 729
linear solve p 179459
time step continuity errors : sum local = 7.96408e-10, global = -9.86472e-21, cumulative = 1.98162e-20
[OGL LOG] create_and_push_b : 445 mu s
[OGL LOG] init_preconditioner : 3 mu s
[OGL LOG] solve : 161495 mu s
nonehipGKOBiCGStab:  Solving for p, Initial residual = 0.598881, Final residual = 7.41384e-07, No Iterations 726
linear solve p 163436
time step continuity errors : sum local = 0.000775056, global = 1.33752e-19, cumulative = 1.53568e-19
ExecutionTime = 3.84 s  ClockTime = 3 s

Time = 0.006

Courant Number mean: 0.10745 max: 0.882355
DILUPBiCGStab:  Solving for Ux, Initial residual = 0.052678, Final residual = 0.000105001, No Iterations 5
DILUPBiCGStab:  Solving for Uy, Initial residual = 0.119987, Final residual = 0.000236188, No Iterations 5
DILUPBiCGStab:  Solving for Uz, Initial residual = 0.455114, Final residual = 0.000411913, No Iterations 5
linear solve U 91842
[OGL LOG] create_and_push_b : 277 mu s
[OGL LOG] init_preconditioner : 2 mu s
[OGL LOG] solve : 170437 mu s
nonehipGKOBiCGStab:  Solving for p, Initial residual = 0.73074, Final residual = 3.36308e-07, No Iterations 755
linear solve p 172254
time step continuity errors : sum local = 3.22917e-08, global = -3.86154e-21, cumulative = 1.49706e-19
[OGL LOG] create_and_push_b : 268 mu s
[OGL LOG] init_preconditioner : 3 mu s
[OGL LOG] solve : 145193 mu s
nonehipGKOBiCGStab:  Solving for p, Initial residual = 0.577937, Final residual = 5.12804e-07, No Iterations 631
linear solve p 146992
time step continuity errors : sum local = 8.82766e-09, global = -2.62841e-20, cumulative = 1.23422e-19
ExecutionTime = 4.59 s  ClockTime = 3 s

End

================================================================================
hash: 3ebb8916134ce578d05dfd694efacae1
/*---------------------------------------------------------------------------*\
  =========                 |
  \\      /  F ield         | OpenFOAM: The Open Source CFD Toolbox
   \\    /   O peration     | Website:  https://openfoam.org
    \\  /    A nd           | Version:  8
     \\/     M anipulation  |
\*---------------------------------------------------------------------------*/
Build  : 8-ef60d22ea792
Exec   : icoFoam
Date   : Oct 22 2021
Time   : 21:26:19
Host   : "nla-gpu2.ianm.kit.edu"
PID    : 772406
I/O    : uncollated
Case   : /tmp/lidDrivenCavity3D/Variation_init/20/Variation_mesh/50/Variation_matrix_solver/IR_NoPrecond_HIP/Variation_innerReductionFactor/0.1/1634930779
nProcs : 1
sigFpe : Enabling floating point exception trapping (FOAM_SIGFPE).
fileModificationChecking : Monitoring run-time modified files using timeStampMaster (fileModificationSkew 10)
allowSystemOperations : Allowing user-supplied system call operations

// * * * * * * * * * * * * * * * * * * * * * * * * * * * * * * * * * * * * * //
Create time

Create mesh for time = 0

Reading transportProperties

Reading field p

Reading field U

Reading/calculating face flux field phi


Starting time loop

Time = 0.002

Courant Number mean: 0 max: 0
DILUPBiCGStab:  Solving for Ux, Initial residual = 1, Final residual = 0.00137768, No Iterations 5
DILUPBiCGStab:  Solving for Uy:  solution singularity
DILUPBiCGStab:  Solving for Uz:  solution singularity
linear solve U 49237
[OGL LOG] init_host_sparsity_pattern : 56742 mu s
[OGL LOG] matrix not stored update host matrix
[OGL LOG] update_host_mtx : 29344 mu s
[OGL LOG] matrix is not yet sorted, compute sorting idxs
[OGL LOG] compute_sort : 1001457 mu s
[OGL LOG] matrix is not yet sorted, sorting host matrix
[OGL LOG] sort_host_mtx_sparsity_pattern : 28137 mu s
[OGL LOG] sort_host_mtx : 21272 mu s
[OGL LOG] create_and_push_b : 486 mu s
[OGL LOG] init_preconditioner : 7 mu s
[OGL LOG] solve : 210487 mu s
nonehipGKOIR:  Solving for p, Initial residual = 1, Final residual = 9.34321e-07, No Iterations 447
[...]
[OGL LOG] create_and_push_b : 27855 mu s
[OGL LOG] init_preconditioner : 4 mu s
[OGL LOG] solve : 21234899 mu s
nonehipGKOCG:  Solving for p, Initial residual = 0.959697, Final residual = 5.78542e-07, No Iterations 2726
linear solve p 31246766
time step continuity errors : sum local = 2.75201e-10, global = 1.00455e-21, cumulative = 5.92994e-21
[OGL LOG] matrix is stored and update of host matrix requested
[OGL LOG] exp_update_host_mtx : 6136586 mu s
[OGL LOG] host matrix needs to be resorted
[OGL LOG] sort_host_mtx : 3430166 mu s
[OGL LOG] create_and_push_b : 28294 mu s
[OGL LOG] init_preconditioner : 4 mu s
[OGL LOG] solve : 21302887 mu s
nonehipGKOCG:  Solving for p, Initial residual = 0.92718, Final residual = 5.40131e-07, No Iterations 2726
linear solve p 31342667
time step continuity errors : sum local = 2.56815e-10, global = -3.15883e-21, cumulative = 2.77111e-21
ExecutionTime = 619.84 s  ClockTime = 610 s

End

================================================================================
hash: 6f7eb55cb2f68f32d41ab72e365e1694
/*---------------------------------------------------------------------------*\
  =========                 |
  \\      /  F ield         | OpenFOAM: The Open Source CFD Toolbox
   \\    /   O peration     | Website:  https://openfoam.org
    \\  /    A nd           | Version:  8
     \\/     M anipulation  |
\*---------------------------------------------------------------------------*/
Build  : 8-ef60d22ea792
Exec   : icoFoam
Date   : Oct 25 2021
Time   : 05:13:29
Host   : "nla-gpu2.ianm.kit.edu"
PID    : 2158304
I/O    : uncollated
Case   : /tmp/lidDrivenCavity3D/Variation_mesh/300/Variation_matrix_solver/BiCGStab_NoPrecond_HIP/1635131609
nProcs : 1
sigFpe : Enabling floating point exception trapping (FOAM_SIGFPE).
fileModificationChecking : Monitoring run-time modified files using timeStampMaster (fileModificationSkew 10)
allowSystemOperations : Allowing user-supplied system call operations

// * * * * * * * * * * * * * * * * * * * * * * * * * * * * * * * * * * * * * //
Create time

--> FOAM Warning : 
    From function virtual void Foam::Time::readDict()
    in file db/Time/TimeIO.C at line 408
    Reading "/tmp/lidDrivenCavity3D/Variation_mesh/300/Variation_matrix_solver/BiCGStab_NoPrecond_HIP/1635131609/system/controlDict" from line 20 to line 52
    Selecting compressed binary is inefficient and ineffective, resetting to uncompressed binary
Create mesh for time = 0

Reading transportProperties

Reading field p

Reading field U

Reading/calculating face flux field phi


Starting time loop

Time = 0.000333333

Courant Number mean: 1.63465e-17 max: 6.245e-14
DILUPBiCGStab:  Solving for Ux, Initial residual = 1, Final residual = 0.0259107, No Iterations 5
DILUPBiCGStab:  Solving for Uy:  solution singularity
DILUPBiCGStab:  Solving for Uz:  solution singularity
linear solve U 15985606
[OGL LOG] init_host_sparsity_pattern : 16223473 mu s
[OGL LOG] matrix not stored update host matrix
[OGL LOG] update_host_mtx : 8416080 mu s
[OGL LOG] matrix is not yet sorted, compute sorting idxs
[OGL LOG] compute_sort : 379293622 mu s
[OGL LOG] matrix is not yet sorted, sorting host matrix
[OGL LOG] sort_host_mtx_sparsity_pattern : 7663199 mu s
[OGL LOG] sort_host_mtx : 5828639 mu s
[OGL LOG] create_and_push_b : 28557 mu s
[OGL LOG] init_preconditioner : 16 mu s
[OGL LOG] solve : 44528097 mu s
nonehipGKOBiCGStab:  Solving for p, Initial residual = 1, Final residual = 6.71507e-07, No Iterations 5718
linear solve p 464464623
time step continuity errors : sum local = 0.000101279, global = 1.13582e-19, cumulative = 1.13582e-19
[OGL LOG] matrix is stored and update of host matrix requested
[OGL LOG] exp_update_host_mtx : 8401228 mu s
[OGL LOG] host matrix needs to be resorted
[OGL LOG] sort_host_mtx : 5809698 mu s
[OGL LOG] create_and_push_b : 28678 mu s
[OGL LOG] init_preconditioner : 4 mu s
[OGL LOG] solve : 38135718 mu s
nonehipGKOBiCGStab:  Solving for p, Initial residual = 0.919614, Final residual = 6.09537e-07, No Iterations 5245
linear solve p 52881326
time step continuity errors : sum local = 2.90191e-10, global = -5.30853e-22, cumulative = 1.13051e-19
ExecutionTime = 586.39 s  ClockTime = 580 s

Time = 0.000666667

Courant Number mean: 0.0313158 max: 0.884933
DILUPBiCGStab:  Solving for Ux, Initial residual = 0.106301, Final residual = 0.0161521, No Iterations 5
DILUPBiCGStab:  Solving for Uy, Initial residual = 0.550445, Final residual = 0.0809504, No Iterations 5
DILUPBiCGStab:  Solving for Uz, Initial residual = 0.912745, Final residual = 0.104887, No Iterations 5
linear solve U 31736595
[OGL LOG] matrix is stored and update of host matrix requested
[OGL LOG] exp_update_host_mtx : 8404494 mu s
[OGL LOG] host matrix needs to be resorted
[OGL LOG] sort_host_mtx : 5727748 mu s
[OGL LOG] create_and_push_b : 27151 mu s
[OGL LOG] init_preconditioner : 4 mu s
[OGL LOG] solve : 53458802 mu s
nonehipGKOBiCGStab:  Solving for p, Initial residual = 0.950169, Final residual = 5.33114e-07, No Iterations 7316
linear solve p 68108822
time step continuity errors : sum local = 2.21031e-08, global = 1.79914e-22, cumulative = 1.13231e-19
[OGL LOG] matrix is stored and update of host matrix requested
[OGL LOG] exp_update_host_mtx : 8409890 mu s
[OGL LOG] host matrix needs to be resorted
[OGL LOG] sort_host_mtx : 5809657 mu s
[OGL LOG] create_and_push_b : 27336 mu s
[OGL LOG] init_preconditioner : 5 mu s
[OGL LOG] solve : 48020685 mu s
nonehipGKOBiCGStab:  Solving for p, Initial residual = 0.893905, Final residual = 8.37463e-07, No Iterations 6425
linear solve p 62787479
time step continuity errors : sum local = 1.13474e-09, global = -1.53102e-23, cumulative = 1.13215e-19
ExecutionTime = 777.28 s  ClockTime = 763 s

Time = 0.001

Courant Number mean: 0.0497608 max: 1.0744
DILUPBiCGStab:  Solving for Ux, Initial residual = 0.067882, Final residual = 0.00801079, No Iterations 5
DILUPBiCGStab:  Solving for Uy, Initial residual = 0.427717, Final residual = 0.0362389, No Iterations 5
DILUPBiCGStab:  Solving for Uz, Initial residual = 0.903506, Final residual = 0.0689659, No Iterations 5
linear solve U 31825569
[OGL LOG] matrix is stored and update of host matrix requested
[OGL LOG] exp_update_host_mtx : 8412281 mu s
[OGL LOG] host matrix needs to be resorted
[OGL LOG] sort_host_mtx : 5840801 mu s
[OGL LOG] create_and_push_b : 23774 mu s
[OGL LOG] init_preconditioner : 4 mu s
[OGL LOG] solve : 39172765 mu s
nonehipGKOBiCGStab:  Solving for p, Initial residual = 0.973547, Final residual = 9.90927e-07, No Iterations 5398
linear solve p 54005578
time step continuity errors : sum local = 2.60377e-06, global = -1.18372e-20, cumulative = 1.01378e-19
[OGL LOG] matrix is stored and update of host matrix requested
[OGL LOG] exp_update_host_mtx : 6292737 mu s
[OGL LOG] host matrix needs to be resorted
[OGL LOG] sort_host_mtx : 4093687 mu s
[OGL LOG] create_and_push_b : 30314 mu s
[OGL LOG] init_preconditioner : 4 mu s
[OGL LOG] solve : 39118003 mu s
nonehipGKOBiCGStab:  Solving for p, Initial residual = 0.920604, Final residual = 3.61105e-07, No Iterations 5376
linear solve p 49999392
time step continuity errors : sum local = 0.000644438, global = -1.50998e-18, cumulative = -1.40861e-18
ExecutionTime = 938.62 s  ClockTime = 919 s

End

================================================================================
hash: 21620d8a937dbba55235b86c03f152b8
/*---------------------------------------------------------------------------*\
  =========                 |
  \\      /  F ield         | OpenFOAM: The Open Source CFD Toolbox
   \\    /   O peration     | Website:  https://openfoam.org
    \\  /    A nd           | Version:  8
     \\/     M anipulation  |
\*---------------------------------------------------------------------------*/
Build  : 8-ef60d22ea792
Exec   : icoFoam
Date   : Oct 25 2021
Time   : 05:28:51
Host   : "nla-gpu2.ianm.kit.edu"
PID    : 2164583
I/O    : uncollated
Case   : /tmp/lidDrivenCavity3D/Variation_mesh/350/Variation_matrix_solver/CG_NoPrecond_HIP/1635132531
nProcs : 1
sigFpe : Enabling floating point exception trapping (FOAM_SIGFPE).
fileModificationChecking : Monitoring run-time modified files using timeStampMaster (fileModificationSkew 10)
allowSystemOperations : Allowing user-supplied system call operations

// * * * * * * * * * * * * * * * * * * * * * * * * * * * * * * * * * * * * * //
Create time

--> FOAM Warning : 
    From function virtual void Foam::Time::readDict()
    in file db/Time/TimeIO.C at line 408
    Reading "/tmp/lidDrivenCavity3D/Variation_mesh/350/Variation_matrix_solver/CG_NoPrecond_HIP/1635132531/system/controlDict" from line 20 to line 52
    Selecting compressed binary is inefficient and ineffective, resetting to uncompressed binary
Create mesh for time = 0

Reading transportProperties

Reading field p

Reading field U

Reading/calculating face flux field phi


Starting time loop

Time = 0.000285714

Courant Number mean: 1.71886e-17 max: 7.28584e-14
DILUPBiCGStab:  Solving for Ux, Initial residual = 1, Final residual = 0.0286463, No Iterations 5
DILUPBiCGStab:  Solving for Uy:  solution singularity
DILUPBiCGStab:  Solving for Uz:  solution singularity
linear solve U 20583537
[OGL LOG] init_host_sparsity_pattern : 19720909 mu s
[OGL LOG] matrix not stored update host matrix
[OGL LOG] update_host_mtx : 10022570 mu s
[OGL LOG] matrix is not yet sorted, compute sorting idxs
[OGL LOG] compute_sort : 480884427 mu s
[OGL LOG] matrix is not yet sorted, sorting host matrix
[OGL LOG] sort_host_mtx_sparsity_pattern : 9518252 mu s
[OGL LOG] sort_host_mtx : 6699295 mu s
[OGL LOG] create_and_push_b : 51179 mu s
[OGL LOG] init_preconditioner : 15 mu s
[OGL LOG] solve : 40455812 mu s
nonehipGKOCG:  Solving for p, Initial residual = 1, Final residual = 9.86709e-07, No Iterations 3189
linear solve p 570186339
time step continuity errors : sum local = 6.87856e-11, global = 6.55564e-21, cumulative = 6.55564e-21
[OGL LOG] matrix is stored and update of host matrix requested
[OGL LOG] exp_update_host_mtx : 10233970 mu s
[OGL LOG] host matrix needs to be resorted
[OGL LOG] sort_host_mtx : 6588147 mu s
[OGL LOG] create_and_push_b : 44919 mu s
[OGL LOG] init_preconditioner : 5 mu s
[OGL LOG] solve : 39894392 mu s
nonehipGKOCG:  Solving for p, Initial residual = 0.832736, Final residual = 2.63908e-07, No Iterations 3303
linear solve p 57449152
time step continuity errors : sum local = 2.20123e-11, global = -2.04757e-23, cumulative = 6.53516e-21
ExecutionTime = 705.96 s  ClockTime = 702 s

Time = 0.000571429

Courant Number mean: 0.0282237 max: 0.89236
DILUPBiCGStab:  Solving for Ux, Initial residual = 0.101932, Final residual = 0.0182565, No Iterations 5
DILUPBiCGStab:  Solving for Uy, Initial residual = 0.559561, Final residual = 0.0993407, No Iterations 5
DILUPBiCGStab:  Solving for Uz, Initial residual = 0.997186, Final residual = 0.200541, No Iterations 5
linear solve U 45781205
[OGL LOG] matrix is stored and update of host matrix requested
[OGL LOG] exp_update_host_mtx : 13437845 mu s
[OGL LOG] host matrix needs to be resorted
[OGL LOG] sort_host_mtx : 9449931 mu s
[OGL LOG] create_and_push_b : 43888 mu s
[OGL LOG] init_preconditioner : 4 mu s
[OGL LOG] solve : 38992407 mu s
nonehipGKOCG:  Solving for p, Initial residual = 0.929882, Final residual = 9.54329e-07, No Iterations 3169
linear solve p 62724843
time step continuity errors : sum local = 2.34407e-10, global = 3.12783e-21, cumulative = 9.66299e-21
[OGL LOG] matrix is stored and update of host matrix requested
[OGL LOG] exp_update_host_mtx : 13469209 mu s
[OGL LOG] host matrix needs to be resorted
[OGL LOG] sort_host_mtx : 9464471 mu s
[OGL LOG] create_and_push_b : 44746 mu s
[OGL LOG] init_preconditioner : 4 mu s
[OGL LOG] solve : 39804721 mu s
nonehipGKOCG:  Solving for p, Initial residual = 0.885406, Final residual = 1.73837e-07, No Iterations 3277
linear solve p 63583368
time step continuity errors : sum local = 4.35436e-11, global = 9.00687e-24, cumulative = 9.672e-21
ExecutionTime = 914.58 s  ClockTime = 907 s

Time = 0.000857143

Courant Number mean: 0.0451638 max: 1.09425
DILUPBiCGStab:  Solving for Ux, Initial residual = 0.0661996, Final residual = 0.0094348, No Iterations 5
DILUPBiCGStab:  Solving for Uy, Initial residual = 0.440328, Final residual = 0.0457545, No Iterations 5
DILUPBiCGStab:  Solving for Uz, Initial residual = 0.882053, Final residual = 0.141805, No Iterations 5
linear solve U 53011541
[OGL LOG] matrix is stored and update of host matrix requested
[OGL LOG] exp_update_host_mtx : 13450122 mu s
[OGL LOG] host matrix needs to be resorted
[OGL LOG] sort_host_mtx : 9412288 mu s
[OGL LOG] create_and_push_b : 41737 mu s
[OGL LOG] init_preconditioner : 5 mu s
[OGL LOG] solve : 39951250 mu s
nonehipGKOCG:  Solving for p, Initial residual = 0.965651, Final residual = 1.86045e-07, No Iterations 3276
linear solve p 63690560
time step continuity errors : sum local = 7.72554e-11, global = 8.45772e-22, cumulative = 1.05178e-20
[OGL LOG] matrix is stored and update of host matrix requested
[OGL LOG] exp_update_host_mtx : 13383928 mu s
[OGL LOG] host matrix needs to be resorted
[OGL LOG] sort_host_mtx : 9322149 mu s
[OGL LOG] create_and_push_b : 41514 mu s
[OGL LOG] init_preconditioner : 4 mu s
[OGL LOG] solve : 39932756 mu s
nonehipGKOCG:  Solving for p, Initial residual = 0.932153, Final residual = 1.77302e-07, No Iterations 3276
linear solve p 63472544
time step continuity errors : sum local = 7.37635e-11, global = 5.08715e-22, cumulative = 1.10265e-20
ExecutionTime = 1132.63 s  ClockTime = 1121 s

End

================================================================================
hash: 04d4e50a9375ab4527796893126c55cd
/*---------------------------------------------------------------------------*\
  =========                 |
  \\      /  F ield         | OpenFOAM: The Open Source CFD Toolbox
   \\    /   O peration     | Website:  https://openfoam.org
    \\  /    A nd           | Version:  8
     \\/     M anipulation  |
\*---------------------------------------------------------------------------*/
Build  : 8-ef60d22ea792
Exec   : icoFoam
Date   : Oct 25 2021
Time   : 05:47:37
Host   : "nla-gpu2.ianm.kit.edu"
PID    : 2172251
I/O    : uncollated
Case   : /tmp/lidDrivenCavity3D/Variation_mesh/350/Variation_matrix_solver/BiCGStab_NoPrecond_HIP/1635133657
nProcs : 1
sigFpe : Enabling floating point exception trapping (FOAM_SIGFPE).
fileModificationChecking : Monitoring run-time modified files using timeStampMaster (fileModificationSkew 10)
allowSystemOperations : Allowing user-supplied system call operations

// * * * * * * * * * * * * * * * * * * * * * * * * * * * * * * * * * * * * * //
Create time

--> FOAM Warning : 
    From function virtual void Foam::Time::readDict()
    in file db/Time/TimeIO.C at line 408
    Reading "/tmp/lidDrivenCavity3D/Variation_mesh/350/Variation_matrix_solver/BiCGStab_NoPrecond_HIP/1635133657/system/controlDict" from line 20 to line 52
    Selecting compressed binary is inefficient and ineffective, resetting to uncompressed binary
Create mesh for time = 0

Reading transportProperties

Reading field p

Reading field U

Reading/calculating face flux field phi


Starting time loop

Time = 0.000285714

Courant Number mean: 1.71886e-17 max: 7.28584e-14
DILUPBiCGStab:  Solving for Ux, Initial residual = 1, Final residual = 0.0286463, No Iterations 5
DILUPBiCGStab:  Solving for Uy:  solution singularity
DILUPBiCGStab:  Solving for Uz:  solution singularity
linear solve U 21013066
[OGL LOG] init_host_sparsity_pattern : 19189961 mu s
[OGL LOG] matrix not stored update host matrix
[OGL LOG] update_host_mtx : 9987193 mu s
[OGL LOG] matrix is not yet sorted, compute sorting idxs
[OGL LOG] compute_sort : 459436496 mu s
[OGL LOG] matrix is not yet sorted, sorting host matrix
[OGL LOG] sort_host_mtx_sparsity_pattern : 9249013 mu s
[OGL LOG] sort_host_mtx : 5593661 mu s
[OGL LOG] create_and_push_b : 62201 mu s
[OGL LOG] init_preconditioner : 12 mu s
[OGL LOG] solve : 109254862 mu s
nonehipGKOBiCGStab:  Solving for p, Initial residual = 1, Final residual = 6.21939e-07, No Iterations 9064
linear solve p 615633915
time step continuity errors : sum local = 0.000185087, global = -1.61592e-18, cumulative = -1.61592e-18
[OGL LOG] matrix is stored and update of host matrix requested
[OGL LOG] exp_update_host_mtx : 9731699 mu s
[OGL LOG] host matrix needs to be resorted
[OGL LOG] sort_host_mtx : 5341347 mu s
[OGL LOG] create_and_push_b : 46462 mu s
[OGL LOG] init_preconditioner : 4 mu s
[OGL LOG] solve : 92574076 mu s
nonehipGKOBiCGStab:  Solving for p, Initial residual = 0.956365, Final residual = 9.47949e-09, No Iterations 7603
linear solve p 108441109
time step continuity errors : sum local = 6.12772e-12, global = -3.30069e-22, cumulative = -1.61625e-18
ExecutionTime = 810.89 s  ClockTime = 801 s

Time = 0.000571429

Courant Number mean: 0.0282267 max: 0.89236
DILUPBiCGStab:  Solving for Ux, Initial residual = 0.102001, Final residual = 0.0182672, No Iterations 5
DILUPBiCGStab:  Solving for Uy, Initial residual = 0.56975, Final residual = 0.0990154, No Iterations 5
DILUPBiCGStab:  Solving for Uz, Initial residual = 0.916164, Final residual = 0.0945941, No Iterations 5
linear solve U 48054067
[OGL LOG] matrix is stored and update of host matrix requested
[OGL LOG] exp_update_host_mtx : 13002791 mu s
[OGL LOG] host matrix needs to be resorted
[OGL LOG] sort_host_mtx : 8634846 mu s
[OGL LOG] create_and_push_b : 43551 mu s
[OGL LOG] init_preconditioner : 5 mu s
[OGL LOG] solve : 89316621 mu s
nonehipGKOBiCGStab:  Solving for p, Initial residual = 0.956328, Final residual = 8.6182e-07, No Iterations 7601
linear solve p 111750907
time step continuity errors : sum local = 1.65325e-09, global = 7.83567e-22, cumulative = -1.61546e-18
[OGL LOG] matrix is stored and update of host matrix requested
[OGL LOG] exp_update_host_mtx : 13240784 mu s
[OGL LOG] host matrix needs to be resorted
[OGL LOG] sort_host_mtx : 8933679 mu s
[OGL LOG] create_and_push_b : 39539 mu s
[OGL LOG] init_preconditioner : 4 mu s
[OGL LOG] solve : 96248558 mu s
nonehipGKOBiCGStab:  Solving for p, Initial residual = 0.895855, Final residual = 6.04787e-07, No Iterations 8209
linear solve p 119234715
time step continuity errors : sum local = 1.15021e-09, global = -1.30098e-21, cumulative = -1.61677e-18
ExecutionTime = 1129.63 s  ClockTime = 1111 s

Time = 0.000857143

Courant Number mean: 0.0452137 max: 1.10247
DILUPBiCGStab:  Solving for Ux, Initial residual = 0.0665625, Final residual = 0.00942795, No Iterations 5
DILUPBiCGStab:  Solving for Uy, Initial residual = 0.452335, Final residual = 0.0455355, No Iterations 5
DILUPBiCGStab:  Solving for Uz, Initial residual = 0.916964, Final residual = 0.0637794, No Iterations 5
linear solve U 49009854
[OGL LOG] matrix is stored and update of host matrix requested
[OGL LOG] exp_update_host_mtx : 9960599 mu s
[OGL LOG] host matrix needs to be resorted
[OGL LOG] sort_host_mtx : 5161571 mu s
[OGL LOG] create_and_push_b : 45991 mu s
[OGL LOG] init_preconditioner : 4 mu s
[OGL LOG] solve : 78258676 mu s
nonehipGKOBiCGStab:  Solving for p, Initial residual = 0.977106, Final residual = 5.43608e-07, No Iterations 6889
linear solve p 94148791
time step continuity errors : sum local = 1.21601e-09, global = -6.96803e-22, cumulative = -1.61746e-18
[OGL LOG] matrix is stored and update of host matrix requested
[OGL LOG] exp_update_host_mtx : 9943192 mu s
[OGL LOG] host matrix needs to be resorted
[OGL LOG] sort_host_mtx : 5176305 mu s
[OGL LOG] create_and_push_b : 48103 mu s
[OGL LOG] init_preconditioner : 5 mu s
[OGL LOG] solve : 93714722 mu s
nonehipGKOBiCGStab:  Solving for p, Initial residual = 0.914782, Final residual = 4.96217e-07, No Iterations 7976
linear solve p 109648839
time step continuity errors : sum local = 5.73961e-05, global = -4.12409e-19, cumulative = -2.02987e-18
ExecutionTime = 1418.81 s  ClockTime = 1393 s

End

================================================================================
